2024_89_CemigReconfigurationCases/1_SEsCemig_2/AXAU03/AXAU03SegmentosMT.dss
new line.TR100391 bus1=BMT172429994.1.2.3,bus2=BMT215499B.1.2.3,Phases=3,Linecode=CAB104_3_3,Length=0.007810000,Units=km
new line.TR100398 bus1=BMT172429994.2,bus2=BMT216157B.2,Phases=1,Linecode=CAB102_3_1,Length=0.015555000,Units=km
new line.TR100405 bus1=BMT172429994.2,bus2=BMT216178B.2,Phases=1,Linecode=CAB102_3_1,Length=0.017690000,Units=km
new line.TR100412 bus1=BMT216178B.2,bus2=BMT172430000.2,Phases=1,Linecode=CAB102_3_1,Length=0.041106000,Units=km
new line.TR100419 bus1=BMT216185B.1.2.3,bus2=BMT172429995.1.2.3,Phases=3,Linecode=CAB103_3_3,Length=0.033968000,Units=km
new line.TR100426 bus1=BMT172429995.1.2.3,bus2=BMT216206B.1.2.3,Phases=3,Linecode=CAB103_3_3,Length=0.033299000,Units=km
new line.TR100433 bus1=BMT119958822.2,bus2=BMT216213B.2,Phases=1,Linecode=CAB102_3_1,Length=0.033968000,Units=km
new line.TR100440 bus1=BMT216206B.1.2.3,bus2=BMT216220B.1.2.3,Phases=3,Linecode=CAB103_3_3,Length=0.033239000,Units=km
new line.TR100447 bus1=BMT216213B.2,bus2=BMT216227B.2,Phases=1,Linecode=CAB102_3_1,Length=0.034710000,Units=km
new line.TR100454 bus1=BMT216220B.1.2.3,bus2=BMT172429996.1.2.3,Phases=3,Linecode=CAB103_3_3,Length=0.029066000,Units=km
new line.TR100461 bus1=BMT216227B.2,bus2=BMT216241B.2,Phases=1,Linecode=CAB102_3_1,Length=0.034710000,Units=km
new line.TR100468 bus1=BMT172429996.1.2.3,bus2=BMT216255B.1.2.3,Phases=3,Linecode=CAB103_3_3,Length=0.010049000,Units=km
new line.TR100475 bus1=BMT172429996.1.2.3,bus2=BMT217753B.1.2.3,Phases=3,Linecode=CAB103_3_3,Length=0.038206000,Units=km
new line.TR100482 bus1=BMT216241B.2,bus2=BMT216248B.2,Phases=1,Linecode=CAB102_3_1,Length=0.029730000,Units=km
new line.TR100489 bus1=BMT216248B.2,bus2=BMT119964163.2,Phases=1,Linecode=CAB102_3_1,Length=0.033299000,Units=km
new line.TR100496 bus1=BMT216255B.1.2.3,bus2=BMT172429997.1.2.3,Phases=3,Linecode=CAB103_3_3,Length=0.025805000,Units=km
new line.TR100503 bus1=BMT216269B.2,bus2=BMT149813856.2,Phases=1,Linecode=CAB102_3_1,Length=0.038324000,Units=km
new line.TR100510 bus1=BMT216409B.1.2.3,bus2=BMT168945404.1.2.3,Phases=3,Linecode=CAB103_3_3,Length=0.034202000,Units=km
new line.TR100517 bus1=BMT216416B.1.2.3,bus2=BMT216409B.1.2.3,Phases=3,Linecode=CAB103_3_3,Length=0.033239000,Units=km
new line.TR100524 bus1=BMT216423B.1.2.3,bus2=BMT168945401.1.2.3,Phases=3,Linecode=CAB103_3_3,Length=0.021839000,Units=km
new line.TR100531 bus1=BMT168945401.1.2.3,bus2=BMT216416B.1.2.3,Phases=3,Linecode=CAB103_3_3,Length=0.034479000,Units=km
new line.TR100538 bus1=BMT168945401.1.2.3,bus2=BMT216444B.1.2.3,Phases=3,Linecode=CAB103_3_3,Length=0.033953000,Units=km
new line.TR100545 bus1=BMT216444B.1.2.3,bus2=BMT168945400.1.2.3,Phases=3,Linecode=CAB103_3_3,Length=0.032277000,Units=km
new line.TR100552 bus1=BMT216521B.1.2.3,bus2=BMT168945402.1.2.3,Phases=3,Linecode=CAB103_3_3,Length=0.033239000,Units=km
new line.TR100559 bus1=BMT216535B.1.2.3,bus2=BMT216521B.1.2.3,Phases=3,Linecode=CAB103_3_3,Length=0.034202000,Units=km
new line.TR100566 bus1=BMT168945400.1.2.3,bus2=BMT216535B.1.2.3,Phases=3,Linecode=CAB103_3_3,Length=0.033523000,Units=km
new line.TR100573 bus1=BMT168945400.1.2.3,bus2=BMT168945399.1.2.3,Phases=3,Linecode=CABA06_3_3,Length=0.026681000,Units=km
new line.TR100580 bus1=BMT168945398.1.2.3,bus2=BMT216563B.1.2.3,Phases=3,Linecode=CABA06_3_3,Length=0.020879000,Units=km
new line.TR100972 bus1=BMT217200B.1.2.3,bus2=BMT217186B.1.2.3,Phases=3,Linecode=CAB103_3_3,Length=0.039846000,Units=km
new line.TR100979 bus1=BMT217207B.1.2.3,bus2=BMT169706090.1.2.3,Phases=3,Linecode=CABA08_3_3,Length=0.030411000,Units=km
new line.TR100986 bus1=BMT169706094.1.2.3,bus2=BMT217200B.1.2.3,Phases=3,Linecode=CAB103_3_3,Length=0.022134000,Units=km
new line.TR101000 bus1=BMT217228B.1.2.3,bus2=BMT169706094.1.2.3,Phases=3,Linecode=CABA06_3_3,Length=0.037944000,Units=km
new line.TR101007 bus1=BMT217235B.1.2.3,bus2=BMT217228B.1.2.3,Phases=3,Linecode=CABA06_3_3,Length=0.010049000,Units=km
new line.TR101014 bus1=BMT150605011.1.2.3,bus2=BMT217249B.1.2.3,Phases=3,Linecode=CAB102_3_3,Length=0.038075000,Units=km
new line.TR101021 bus1=BMT217249B.1.2.3,bus2=BMT217263B.1.2.3,Phases=3,Linecode=CAB102_3_3,Length=0.042056000,Units=km
new line.TR101028 bus1=BMT217263B.1.2.3,bus2=BMT150605013.1.2.3,Phases=3,Linecode=CAB102_3_3,Length=0.036671000,Units=km
new line.TR101035 bus1=BMT150605013.1.2.3,bus2=BMT119957660.1.2.3,Phases=3,Linecode=CAB102_3_3,Length=0.042056000,Units=km
new line.TR101042 bus1=BMT176041157.3,bus2=BMT176041158.3,Phases=1,Linecode=CAB102_3_1,Length=0.030411000,Units=km
new line.TR101049 bus1=BMT176041159.3,bus2=BMT176041160.3,Phases=1,Linecode=CAB102_3_1,Length=0.023705000,Units=km
new line.TR101056 bus1=BMT176041160.3,bus2=BMT217298B.3,Phases=1,Linecode=CAB102_3_1,Length=0.031903000,Units=km
new line.TR101063 bus1=BMT176041160.3,bus2=BMT217305B.3,Phases=1,Linecode=CAB102_3_1,Length=0.043043000,Units=km
new line.TR101070 bus1=BMT217298B.3,bus2=BMT275545B.3,Phases=1,Linecode=CAB102_3_1,Length=0.028440000,Units=km
new line.TR101077 bus1=BMT217305B.3,bus2=BMT219391B.3,Phases=1,Linecode=CAB102_3_1,Length=0.030460000,Units=km
new line.TR101084 bus1=BMT217375B.1.2.3,bus2=BMT119959690.1.2.3,Phases=3,Linecode=CAB102_3_3,Length=0.032693000,Units=km
new line.TR101091 bus1=BMT217382B.1.2.3,bus2=BMT217368B.1.2.3,Phases=3,Linecode=CAB102_3_3,Length=0.011313000,Units=km
new line.TR101098 bus1=BMT217382B.1.2.3,bus2=BMT217375B.1.2.3,Phases=3,Linecode=CAB102_3_3,Length=0.007615000,Units=km
new line.TR101105 bus1=BMT217382B.1.2.3,bus2=BMT217389B.1.2.3,Phases=3,Linecode=CAB102_3_3,Length=0.016154000,Units=km
new line.TR101112 bus1=BMT217396B.1.2.3,bus2=BMT217382B.1.2.3,Phases=3,Linecode=CAB102_3_3,Length=0.027800000,Units=km
new line.TR101119 bus1=BMT217410B.1.2.3,bus2=BMT217396B.1.2.3,Phases=3,Linecode=CAB102_3_3,Length=0.023429000,Units=km
new line.TR101126 bus1=BMT217487B.1.2.3,bus2=BMT318364B.1.2.3,Phases=3,Linecode=CAB103_3_3,Length=0.032982000,Units=km
new line.TR101133 bus1=BMT119957254.1.2.3,bus2=BMT217487B.1.2.3,Phases=3,Linecode=CAB103_3_3,Length=0.024513000,Units=km
new line.TR101140 bus1=BMT119957261.1.2.3,bus2=BMT119957268.1.2.3,Phases=3,Linecode=CAB103_3_3,Length=0.028859000,Units=km
new line.TR101147 bus1=BMT154005216.1.2.3,bus2=BMT217613B.1.2.3,Phases=3,Linecode=CAB103_3_3,Length=0.028158000,Units=km
new line.TR101154 bus1=BMT217515B.1.2.3,bus2=BMT217522B.1.2.3,Phases=3,Linecode=CAB103_3_3,Length=0.032013000,Units=km
new line.TR101161 bus1=BMT217522B.1.2.3,bus2=BMT150604994.1.2.3,Phases=3,Linecode=CAB103_3_3,Length=0.038075000,Units=km
new line.TR101560 bus1=BMT172070401.1.2.3,bus2=BMT172070402.1.2.3,Phases=3,Linecode=CABA06_3_3,Length=0.036122000,Units=km
new line.TR101567 bus1=BMT172070402.1.2.3,bus2=BMT172070403.1.2.3,Phases=3,Linecode=CABA06_3_3,Length=0.036793000,Units=km
new line.TR101588 bus1=BMT218250B.1.2.3,bus2=BMT328703B.1.2.3,Phases=3,Linecode=CABA06_3_3,Length=0.031238000,Units=km
new line.TR100006 bus1=BMT138618708.1.2.3,bus2=BMT172430002.1.2.3,Phases=3,Linecode=CAB104_3_3,Length=0.083538000,Units=km
new line.TR100013 bus1=BMT215576B.1.2.3,bus2=BMT215688B.1.2.3,Phases=3,Linecode=CAB103_3_3,Length=0.030803000,Units=km
new line.TR100020 bus1=BMT215604B.1.2.3,bus2=BMT215576B.1.2.3,Phases=3,Linecode=CAB103_3_3,Length=0.029612000,Units=km
new line.TR100027 bus1=BMT159322429.1.2.3,bus2=BMT215625B.1.2.3,Phases=3,Linecode=CABA08_3_3,Length=0.032013000,Units=km
new line.TR100034 bus1=BMT215625B.1.2.3,bus2=BMT156793092.1.2.3,Phases=3,Linecode=CABA08_3_3,Length=0.033731000,Units=km
new line.TR100041 bus1=BMT174504258.1.2.3,bus2=BMT215604B.1.2.3,Phases=3,Linecode=CAB103_3_3,Length=0.030081000,Units=km
new line.TR100048 bus1=BMT156793092.1.2.3,bus2=BMT215646B.1.2.3,Phases=3,Linecode=CABA08_3_3,Length=0.029830000,Units=km
new line.TR100055 bus1=BMT215646B.1.2.3,bus2=BMT159322430.1.2.3,Phases=3,Linecode=CABA08_3_3,Length=0.037852000,Units=km
new line.TR100062 bus1=BMT159322430.1.2.3,bus2=BMT215660B.1.2.3,Phases=3,Linecode=CABA08_3_3,Length=0.034202000,Units=km
new line.TR100069 bus1=BMT215660B.1.2.3,bus2=BMT215667B.1.2.3,Phases=3,Linecode=CABA08_3_3,Length=0.033731000,Units=km
new line.TR100076 bus1=BMT215667B.1.2.3,bus2=BMT215674B.1.2.3,Phases=3,Linecode=CABA08_3_3,Length=0.038075000,Units=km
new line.TR100083 bus1=BMT215674B.1.2.3,bus2=BMT215681B.1.2.3,Phases=3,Linecode=CABA08_3_3,Length=0.039048000,Units=km
new line.TR100090 bus1=BMT215681B.1.2.3,bus2=BMT159322431.1.2.3,Phases=3,Linecode=CABA08_3_3,Length=0.043170000,Units=km
new line.TR100097 bus1=BMT215688B.1.2.3,bus2=BMT174504259.1.2.3,Phases=3,Linecode=CAB103_3_3,Length=0.031046000,Units=km
new line.TR100104 bus1=BMT215695B.2,bus2=BMT119972367.2,Phases=1,Linecode=CAB103_3_1,Length=0.030803000,Units=km
new line.TR100111 bus1=BMT119972367.2,bus2=BMT215709B.2,Phases=1,Linecode=CAB103_3_1,Length=0.031620000,Units=km
new line.TR100118 bus1=BMT215709B.2,bus2=BMT215723B.2,Phases=1,Linecode=CAB103_3_1,Length=0.031336000,Units=km
new line.TR100125 bus1=BMT215723B.2,bus2=BMT215870B.2,Phases=1,Linecode=CAB103_3_1,Length=0.031627000,Units=km
new line.TR100139 bus1=BMT168026377.1.2.3,bus2=BMT214491B.1.2.3,Phases=3,Linecode=CAB103_3_3,Length=0.036685000,Units=km
new line.TR100146 bus1=BMT215744B.1.2.3,bus2=BMT168026377.1.2.3,Phases=3,Linecode=CAB103_3_3,Length=0.036685000,Units=km
new line.TR100153 bus1=BMT215751B.1.2.3,bus2=BMT215744B.1.2.3,Phases=3,Linecode=CAB103_3_3,Length=0.037360000,Units=km
new line.TR100160 bus1=BMT215807B.1.2.3,bus2=BMT168945409.1.2.3,Phases=3,Linecode=CAB102_3_3,Length=0.034202000,Units=km
new line.TR100167 bus1=BMT215814B.1.2.3,bus2=BMT215807B.1.2.3,Phases=3,Linecode=CAB102_3_3,Length=0.032982000,Units=km
new line.TR100174 bus1=BMT168945407.1.2.3,bus2=BMT215814B.1.2.3,Phases=3,Linecode=CAB102_3_3,Length=0.033953000,Units=km
new line.TR100181 bus1=BMT168945407.1.2.3,bus2=BMT215828B.1.2.3,Phases=3,Linecode=CAB103_3_3,Length=0.022802000,Units=km
new line.TR100188 bus1=BMT215828B.1.2.3,bus2=BMT168945405.1.2.3,Phases=3,Linecode=CAB103_3_3,Length=0.018680000,Units=km
new line.TR100776 bus1=BMT159322431.1.2.3,bus2=BMT216822B.1.2.3,Phases=3,Linecode=CAB103_3_3,Length=0.028859000,Units=km
new line.TR100783 bus1=BMT159322431.1.2.3,bus2=BMT216857B.1.2.3,Phases=3,Linecode=CABA08_3_3,Length=0.033239000,Units=km
new line.TR100790 bus1=BMT216857B.1.2.3,bus2=BMT216864B.1.2.3,Phases=3,Linecode=CABA08_3_3,Length=0.034925000,Units=km
new line.TR100797 bus1=BMT216864B.1.2.3,bus2=BMT119971751.1.2.3,Phases=3,Linecode=CABA08_3_3,Length=0.035899000,Units=km
new line.TR100804 bus1=BMT159358712.1.2.3,bus2=BMT216885B.1.2.3,Phases=3,Linecode=CABA08_3_3,Length=0.030803000,Units=km
new line.TR100811 bus1=BMT216885B.1.2.3,bus2=BMT159358713.1.2.3,Phases=3,Linecode=CABA08_3_3,Length=0.046321000,Units=km
new line.TR100818 bus1=BMT159358713.1.2.3,bus2=BMT216899B.1.2.3,Phases=3,Linecode=CABA08_3_3,Length=0.045118000,Units=km
new line.TR100825 bus1=BMT216899B.1.2.3,bus2=BMT119972003.1.2.3,Phases=3,Linecode=CABA08_3_3,Length=0.029830000,Units=km
new line.TR100832 bus1=BMT119972003.1.2.3,bus2=BMT159358714.1.2.3,Phases=3,Linecode=CABA08_3_3,Length=0.040258000,Units=km
new line.TR100839 bus1=BMT174921444.1.2.3,bus2=BMT174921384.1.2.3,Phases=3,Linecode=CABA06_3_3,Length=0.038324000,Units=km
new line.TR100846 bus1=BMT169706089.1.2.3,bus2=BMT217193B.1.2.3,Phases=3,Linecode=CABA08_3_3,Length=0.037105000,Units=km
new line.TR100853 bus1=BMT172430002.1.2.3,bus2=BMT216934B.1.2.3,Phases=3,Linecode=CAB104_3_3,Length=0.034652000,Units=km
new line.TR100860 bus1=BMT216934B.1.2.3,bus2=BMT172430003.1.2.3,Phases=3,Linecode=CAB104_3_3,Length=0.004472000,Units=km
new line.TR100867 bus1=BMT216941B.1.2.3,bus2=BMT119958857.1.2.3,Phases=3,Linecode=CAB104_3_3,Length=0.043182000,Units=km
new line.TR100874 bus1=BMT119958864.1.2.3,bus2=BMT119958871.1.2.3,Phases=3,Linecode=CAB104_3_3,Length=0.018600000,Units=km
new line.TR100881 bus1=BMT217067B.1.2.3,bus2=BMT217074B.1.2.3,Phases=3,Linecode=CAB103_3_3,Length=0.006083000,Units=km
new line.TR100888 bus1=BMT217074B.1.2.3,bus2=BMT217095B.1.2.3,Phases=3,Linecode=CAB103_3_3,Length=0.035168000,Units=km
new line.TR100895 bus1=BMT217095B.1.2.3,bus2=BMT150604995.1.2.3,Phases=3,Linecode=CAB103_3_3,Length=0.036135000,Units=km
new line.TR100902 bus1=BMT150604995.1.2.3,bus2=BMT217116B.1.2.3,Phases=3,Linecode=CAB103_3_3,Length=0.032982000,Units=km
new line.TR100909 bus1=BMT217116B.1.2.3,bus2=BMT217123B.1.2.3,Phases=3,Linecode=CAB103_3_3,Length=0.013152000,Units=km
new line.TR100916 bus1=BMT217123B.1.2.3,bus2=BMT217130B.1.2.3,Phases=3,Linecode=CAB103_3_3,Length=0.022802000,Units=km
new line.TR100923 bus1=BMT217130B.1.2.3,bus2=BMT217144B.1.2.3,Phases=3,Linecode=CAB103_3_3,Length=0.035168000,Units=km
new line.TR100930 bus1=BMT217144B.1.2.3,bus2=BMT217151B.1.2.3,Phases=3,Linecode=CAB103_3_3,Length=0.039290000,Units=km
new line.TR100937 bus1=BMT217151B.1.2.3,bus2=BMT217158B.1.2.3,Phases=3,Linecode=CAB103_3_3,Length=0.033953000,Units=km
new line.TR100944 bus1=BMT217158B.1.2.3,bus2=BMT217515B.1.2.3,Phases=3,Linecode=CAB103_3_3,Length=0.040258000,Units=km
new line.TR100951 bus1=BMT217179B.1.2.3,bus2=BMT169706095.1.2.3,Phases=3,Linecode=CAB103_3_3,Length=0.025078000,Units=km
new line.TR100958 bus1=BMT217179B.1.2.3,bus2=BMT217186B.1.2.3,Phases=3,Linecode=CAB103_3_3,Length=0.039455000,Units=km
new line.TR100965 bus1=BMT217193B.1.2.3,bus2=BMT217207B.1.2.3,Phases=3,Linecode=CABA08_3_3,Length=0.031046000,Units=km
new line.TR101756 bus1=BMT119958955.1.2.3,bus2=BMT218621B.1.2.3,Phases=3,Linecode=CAB104_3_3,Length=0.032555000,Units=km
new line.TR101763 bus1=BMT218621B.1.2.3,bus2=BMT218628B.1.2.3,Phases=3,Linecode=CAB104_3_3,Length=0.030477000,Units=km
new line.TR101770 bus1=BMT218628B.1.2.3,bus2=BMT219251B.1.2.3,Phases=3,Linecode=CAB104_3_3,Length=0.034202000,Units=km
new line.TR101777 bus1=BMT119959998.1.2.3,bus2=BMT217984B.1.2.3,Phases=3,Linecode=CAB103_3_3,Length=0.034406000,Units=km
new line.TR100195 bus1=BMT168945405.1.2.3,bus2=BMT168945403.1.2.3,Phases=3,Linecode=CAB102_3_3,Length=0.024737000,Units=km
new line.TR100202 bus1=BMT215856B.2,bus2=BMT214022B.2,Phases=1,Linecode=CAB103_3_1,Length=0.034569000,Units=km
new line.TR100209 bus1=BMT119972374.2,bus2=BMT215856B.2,Phases=1,Linecode=CAB103_3_1,Length=0.034569000,Units=km
new line.TR100216 bus1=BMT215870B.2,bus2=BMT215877B.2,Phases=1,Linecode=CAB103_3_1,Length=0.032984000,Units=km
new line.TR100223 bus1=BMT215877B.2,bus2=BMT119972374.2,Phases=1,Linecode=CAB103_3_1,Length=0.031395000,Units=km
new line.TR100230 bus1=BMT215947B.1.2.3,bus2=BMT168945406.1.2.3,Phases=3,Linecode=CAB103_3_3,Length=0.035168000,Units=km
new line.TR100237 bus1=BMT215954B.1.2.3,bus2=BMT215947B.1.2.3,Phases=3,Linecode=CAB103_3_3,Length=0.035168000,Units=km
new line.TR100244 bus1=BMT168945403.1.2.3,bus2=BMT215954B.1.2.3,Phases=3,Linecode=CAB103_3_3,Length=0.032754000,Units=km
new line.TR100251 bus1=BMT168945403.1.2.3,bus2=BMT215968B.1.2.3,Phases=3,Linecode=CAB103_3_3,Length=0.023768000,Units=km
new line.TR100258 bus1=BMT215968B.1.2.3,bus2=BMT216423B.1.2.3,Phases=3,Linecode=CAB103_3_3,Length=0.017719000,Units=km
new line.TR100265 bus1=BMT149813847.2,bus2=BMT324839B.2,Phases=1,Linecode=CAB102_3_1,Length=0.032277000,Units=km
new line.TR100272 bus1=BMT215996B.1.2.3,bus2=BMT149804889.1.2.3,Phases=3,Linecode=CABA06_3_3,Length=0.038324000,Units=km
new line.TR100279 bus1=BMT167469524.1.2.3,bus2=BMT215996B.1.2.3,Phases=3,Linecode=CABA06_3_3,Length=0.038324000,Units=km
new line.TR100286 bus1=BMT216017B.1.2.3,bus2=BMT167469523.1.2.3,Phases=3,Linecode=CAB103_3_3,Length=0.036671000,Units=km
new line.TR100293 bus1=BMT167469523.1.2.3,bus2=BMT216031B.1.2.3,Phases=3,Linecode=CABA06_3_3,Length=0.033239000,Units=km
new line.TR100300 bus1=BMT216031B.1.2.3,bus2=BMT167469522.1.2.3,Phases=3,Linecode=CABA06_3_3,Length=0.028633000,Units=km
new line.TR100307 bus1=BMT167469522.1.2.3,bus2=BMT167469524.1.2.3,Phases=3,Linecode=CABA06_3_3,Length=0.030081000,Units=km
new line.TR100314 bus1=BMT167469522.1.2.3,bus2=BMT216045B.1.2.3,Phases=3,Linecode=CABA06_3_3,Length=0.004472000,Units=km
new line.TR100321 bus1=BMT167469522.1.2.3,bus2=BMT119957520.1.2.3,Phases=3,Linecode=CABA06_3_3,Length=0.004000000,Units=km
new line.TR100328 bus1=BMT216045B.1.2.3,bus2=BMT119957296.1.2.3,Phases=3,Linecode=CABA06_3_3,Length=0.032982000,Units=km
new line.TR100335 bus1=BMT150605009.1.2.3,bus2=BMT150605010.1.2.3,Phases=3,Linecode=CABA06_3_3,Length=0.036875000,Units=km
new line.TR100342 bus1=BMT150604997.1.2.3,bus2=BMT150604996.1.2.3,Phases=3,Linecode=CABA06_3_3,Length=0.033953000,Units=km
new line.TR100349 bus1=BMT150604996.1.2.3,bus2=BMT216101B.1.2.3,Phases=3,Linecode=CAB103_3_3,Length=0.032982000,Units=km
new line.TR100356 bus1=BMT216101B.1.2.3,bus2=BMT217067B.1.2.3,Phases=3,Linecode=CAB103_3_3,Length=0.027890000,Units=km
new line.TR100363 bus1=BMT150605010.1.2.3,bus2=BMT150605011.1.2.3,Phases=3,Linecode=CABA06_3_3,Length=0.041142000,Units=km
new line.TR100370 bus1=BMT172429993.1.2.3,bus2=BMT216150B.1.2.3,Phases=3,Linecode=CAB103_3_3,Length=0.005657000,Units=km
new line.TR100377 bus1=BMT172429993.1.2.3,bus2=BMT172429994.1.2.3,Phases=3,Linecode=CAB104_3_3,Length=0.014865000,Units=km
new line.TR100384 bus1=BMT172429993.1.2.3,bus2=BMT216185B.1.2.3,Phases=3,Linecode=CAB103_3_3,Length=0.037799000,Units=km
new line.TR101168 bus1=BMT150604994.1.2.3,bus2=BMT217536B.1.2.3,Phases=3,Linecode=CAB103_3_3,Length=0.034202000,Units=km
new line.TR101175 bus1=BMT217536B.1.2.3,bus2=BMT217543B.1.2.3,Phases=3,Linecode=CAB103_3_3,Length=0.033953000,Units=km
new line.TR101182 bus1=BMT217543B.1.2.3,bus2=BMT217550B.1.2.3,Phases=3,Linecode=CAB103_3_3,Length=0.032982000,Units=km
new line.TR101189 bus1=BMT217550B.1.2.3,bus2=BMT217557B.1.2.3,Phases=3,Linecode=CAB103_3_3,Length=0.031046000,Units=km
new line.TR101196 bus1=BMT217557B.1.2.3,bus2=BMT119957261.1.2.3,Phases=3,Linecode=CAB103_3_3,Length=0.033239000,Units=km
new line.TR101203 bus1=BMT217606B.3,bus2=BMT154005218.3,Phases=1,Linecode=CAB103_3_1,Length=0.023768000,Units=km
new line.TR101210 bus1=BMT217613B.1.2.3,bus2=BMT154005217.1.2.3,Phases=3,Linecode=CAB103_3_3,Length=0.026681000,Units=km
new line.TR101217 bus1=BMT154005217.3,bus2=BMT217606B.3,Phases=1,Linecode=CAB103_3_1,Length=0.029118000,Units=km
new line.TR101224 bus1=BMT154005217.1.2.3,bus2=BMT217627B.1.2.3,Phases=3,Linecode=CAB103_3_3,Length=0.021585000,Units=km
new line.TR101231 bus1=BMT217627B.1.2.3,bus2=BMT217634B.1.2.3,Phases=3,Linecode=CAB103_3_3,Length=0.018680000,Units=km
new line.TR101238 bus1=BMT217634B.1.2.3,bus2=BMT154005219.1.2.3,Phases=3,Linecode=CAB103_3_3,Length=0.008544000,Units=km
new line.TR101245 bus1=BMT217690B.1.2.3,bus2=BMT119959697.1.2.3,Phases=3,Linecode=CAB102_3_3,Length=0.030460000,Units=km
new line.TR101252 bus1=BMT217697B.1.2.3,bus2=BMT217690B.1.2.3,Phases=3,Linecode=CAB102_3_3,Length=0.031382000,Units=km
new line.TR101259 bus1=BMT217711B.1.2.3,bus2=BMT217697B.1.2.3,Phases=3,Linecode=CAB102_3_3,Length=0.034537000,Units=km
new line.TR101266 bus1=BMT217753B.1.2.3,bus2=BMT172429998.1.2.3,Phases=3,Linecode=CAB103_3_3,Length=0.032555000,Units=km
new line.TR101273 bus1=BMT172429998.1,bus2=BMT172429999.1,Phases=1,Linecode=CAB103_3_1,Length=0.038180000,Units=km
new line.TR101280 bus1=BMT217809B.1.2.3,bus2=BMT170220290.1.2.3,Phases=3,Linecode=CAB103_3_3,Length=0.041781000,Units=km
new line.TR101287 bus1=BMT170220290.1.2.3,bus2=BMT170220291.1.2.3,Phases=3,Linecode=CAB103_3_3,Length=0.033239000,Units=km
new line.TR101294 bus1=BMT170220291.1.2.3,bus2=BMT217830B.1.2.3,Phases=3,Linecode=CAB103_3_3,Length=0.036397000,Units=km
new line.TR101301 bus1=BMT217830B.1.2.3,bus2=BMT170220292.1.2.3,Phases=3,Linecode=CAB103_3_3,Length=0.025630000,Units=km
new line.TR101308 bus1=BMT170220292.1.2.3,bus2=BMT170220294.1.2.3,Phases=3,Linecode=CAB103_3_3,Length=0.042044000,Units=km
new line.TR101315 bus1=BMT170220294.1.2.3,bus2=BMT217851B.1.2.3,Phases=3,Linecode=CAB103_3_3,Length=0.035225000,Units=km
new line.TR101322 bus1=BMT217851B.1.2.3,bus2=BMT217858B.1.2.3,Phases=3,Linecode=CAB103_3_3,Length=0.035465000,Units=km
new line.TR101329 bus1=BMT217858B.1.2.3,bus2=BMT217865B.1.2.3,Phases=3,Linecode=CAB103_3_3,Length=0.028598000,Units=km
new line.TR101336 bus1=BMT217865B.1.2.3,bus2=BMT217872B.1.2.3,Phases=3,Linecode=CAB103_3_3,Length=0.030608000,Units=km
new line.TR101343 bus1=BMT217872B.1.2.3,bus2=BMT165918009.1.2.3,Phases=3,Linecode=CAB103_3_3,Length=0.033598000,Units=km
new line.TR101350 bus1=BMT165918009.1.2.3,bus2=BMT170220295.1.2.3,Phases=3,Linecode=CAB103_3_3,Length=0.030608000,Units=km
new line.TR101952 bus1=BMT176041167.3,bus2=BMT219062B.3,Phases=1,Linecode=CAB102_3_1,Length=0.034129000,Units=km
new line.TR101959 bus1=BMT219062B.3,bus2=BMT219069B.3,Phases=1,Linecode=CAB102_3_1,Length=0.034056000,Units=km
new line.TR101966 bus1=BMT219069B.3,bus2=BMT176041168.3,Phases=1,Linecode=CAB102_3_1,Length=0.035125000,Units=km
new line.TR100587 bus1=BMT216563B.1.2.3,bus2=BMT216570B.1.2.3,Phases=3,Linecode=CABA06_3_3,Length=0.021585000,Units=km
new line.TR100594 bus1=BMT216570B.1.2.3,bus2=BMT174105644.1.2.3,Phases=3,Linecode=CABA06_3_3,Length=0.008246000,Units=km
new line.TR100601 bus1=BMT216577B.1.2.3,bus2=BMT215751B.1.2.3,Phases=3,Linecode=CAB103_3_3,Length=0.034479000,Units=km
new line.TR100608 bus1=BMT216584B.1.2.3,bus2=BMT216577B.1.2.3,Phases=3,Linecode=CAB103_3_3,Length=0.034782000,Units=km
new line.TR100615 bus1=BMT168026376.1.2.3,bus2=BMT216584B.1.2.3,Phases=3,Linecode=CAB103_3_3,Length=0.032277000,Units=km
new line.TR100622 bus1=BMT216598B.1.2.3,bus2=BMT168026376.1.2.3,Phases=3,Linecode=CAB103_3_3,Length=0.034173000,Units=km
new line.TR100629 bus1=BMT168026375.1.2.3,bus2=BMT216598B.1.2.3,Phases=3,Linecode=CAB103_3_3,Length=0.025959000,Units=km
new line.TR100636 bus1=BMT173285625.1.2.3,bus2=BMT173285626.1.2.3,Phases=3,Linecode=CAB103_3_3,Length=0.031778000,Units=km
new line.TR100643 bus1=BMT169706095.1.2.3,bus2=BMT168025447.1.2.3,Phases=3,Linecode=CAB103_3_3,Length=0.033538000,Units=km
new line.TR100650 bus1=BMT173285626.1.2.3,bus2=BMT158420261.1.2.3,Phases=3,Linecode=CAB103_3_3,Length=0.013601000,Units=km
new line.TR100657 bus1=BMT173285626.1.2.3,bus2=BMT158685301.1.2.3,Phases=3,Linecode=CABA06_3_3,Length=0.033835000,Units=km
new line.TR100664 bus1=BMT216633B.1.2.3,bus2=BMT288670B.1.2.3,Phases=3,Linecode=CAB103_3_3,Length=0.026399000,Units=km
new line.TR100671 bus1=BMT216640B.1.2.3,bus2=BMT216633B.1.2.3,Phases=3,Linecode=CAB103_3_3,Length=0.033012000,Units=km
new line.TR100678 bus1=BMT216654B.1.2.3,bus2=BMT119960012.1.2.3,Phases=3,Linecode=CAB103_3_3,Length=0.020614000,Units=km
new line.TR100685 bus1=BMT216703B.1.2.3,bus2=BMT216710B.1.2.3,Phases=3,Linecode=CAB103_3_3,Length=0.020807000,Units=km
new line.TR100692 bus1=BMT216710B.1.2.3,bus2=BMT216654B.1.2.3,Phases=3,Linecode=CAB103_3_3,Length=0.022470000,Units=km
new line.TR100699 bus1=BMT119960012.1.2.3,bus2=BMT216640B.1.2.3,Phases=3,Linecode=CAB103_3_3,Length=0.018026000,Units=km
new line.TR100706 bus1=BMT216752B.1.2.3,bus2=BMT119958990.1.2.3,Phases=3,Linecode=CAB104_3_3,Length=0.040221000,Units=km
new line.TR100713 bus1=BMT216759B.1.2.3,bus2=BMT216752B.1.2.3,Phases=3,Linecode=CAB104_3_3,Length=0.043859000,Units=km
new line.TR100720 bus1=BMT216759B.1.2.3,bus2=BMT216766B.1.2.3,Phases=3,Linecode=CAB104_3_3,Length=0.044594000,Units=km
new line.TR100727 bus1=BMT216766B.1.2.3,bus2=BMT119958983.1.2.3,Phases=3,Linecode=CAB104_3_3,Length=0.039201000,Units=km
new line.TR100734 bus1=BMT119958983.1.2.3,bus2=BMT216780B.1.2.3,Phases=3,Linecode=CAB104_3_3,Length=0.036397000,Units=km
new line.TR100741 bus1=BMT216780B.1.2.3,bus2=BMT216787B.1.2.3,Phases=3,Linecode=CAB104_3_3,Length=0.034825000,Units=km
new line.TR100748 bus1=BMT119958976.1.2.3,bus2=BMT216787B.1.2.3,Phases=3,Linecode=CAB104_3_3,Length=0.037799000,Units=km
new line.TR100755 bus1=BMT216801B.1.2.3,bus2=BMT119958976.1.2.3,Phases=3,Linecode=CAB104_3_3,Length=0.035606000,Units=km
new line.TR100762 bus1=BMT216801B.1.2.3,bus2=BMT119958969.1.2.3,Phases=3,Linecode=CAB104_3_3,Length=0.029204000,Units=km
...
