2024_89_CemigReconfigurationCases/1_SEsCemig_2/AXAU03/AXAU03Transformadores.dss
new transformer.1007663 Phases=1,Windings=3,Buses=[BMT119948182.2 BBT93261711.1.0 BBT93261711.0.2],Conns=[wye wye wye],kvs=[7.967 0.12 0.12],kvas=[5.000000000 5.000000000 5.000000000],Taps=[1,1.000000000,1.000000000],%loadloss=1.900000000,%noloadloss=0.600000000
new transformer.1007880 Phases=1,Windings=3,Buses=[BMT119946656.3 BBT94646654.1.0 BBT94646654.0.2],Conns=[wye wye wye],kvs=[7.967 0.12 0.12],kvas=[5.000000000 5.000000000 5.000000000],Taps=[1,1.000000000,1.000000000],%loadloss=1.900000000,%noloadloss=0.600000000
new transformer.1008426 Phases=1,Windings=3,Buses=[BMT171133052.2 BBT85733960.1.0 BBT85733960.0.2],Conns=[wye wye wye],kvs=[7.967 0.12 0.12],kvas=[10.000000000 10.000000000 10.000000000],Taps=[1,1.000000000,1.000000000],%loadloss=1.800000000,%noloadloss=0.450000000
new transformer.1014992 Phases=1,Windings=3,Buses=[BMT159426681.1 BBT99521559.1.0 BBT99521559.0.2],Conns=[wye wye wye],kvs=[7.967 0.12 0.12],kvas=[5.000000000 5.000000000 5.000000000],Taps=[1,1.000000000,1.000000000],%loadloss=1.900000000,%noloadloss=0.600000000
new transformer.1015013 Phases=1,Windings=3,Buses=[BMT159426678.1 BBT99521951.1.0 BBT99521951.0.2],Conns=[wye wye wye],kvs=[7.967 0.12 0.12],kvas=[5.000000000 5.000000000 5.000000000],Taps=[1,1.000000000,1.000000000],%loadloss=1.900000000,%noloadloss=0.600000000
new transformer.1015321 Phases=1,Windings=3,Buses=[BMT119946033.3 BBT88722449.1.0 BBT88722449.0.2],Conns=[wye wye wye],kvs=[7.967 0.12 0.12],kvas=[35.000000000 35.000000000 35.000000000],Taps=[1,1.000000000,1.000000000],%loadloss=1.410000000,%noloadloss=0.433000000
new transformer.1015909 Phases=3,Windings=2,Buses=[BMT119959074.1.2.3 BBT89310064.1.2.3.0],Conns=[delta wye],kvs=[13.8 0.22],kvas=[30.000000000 30.000000000],Taps=[1,1.000000000],%loadloss=1.667000000,%noloadloss=0.433333333
new transformer.1016238 Phases=1,Windings=3,Buses=[BMT119953460.3 BBT98302586.1.0 BBT98302586.0.2],Conns=[wye wye wye],kvs=[7.967 0.12 0.12],kvas=[5.000000000 5.000000000 5.000000000],Taps=[1,1.000000000,1.000000000],%loadloss=1.900000000,%noloadloss=0.600000000
new transformer.1016294 Phases=1,Windings=3,Buses=[BMT119990567.1 BBT98070718.1.0 BBT98070718.0.2],Conns=[wye wye wye],kvs=[7.967 0.12 0.12],kvas=[5.000000000 5.000000000 5.000000000],Taps=[1,1.000000000,1.000000000],%loadloss=1.900000000,%noloadloss=0.600000000
new transformer.1016427 Phases=1,Windings=3,Buses=[BMT119962483.2 BBT103521912.1.0 BBT103521912.0.2],Conns=[wye wye wye],kvs=[7.967 0.12 0.12],kvas=[5.000000000 5.000000000 5.000000000],Taps=[1,1.000000000,1.000000000],%loadloss=1.900000000,%noloadloss=0.600000000
new transformer.1028005 Phases=1,Windings=3,Buses=[BMT119991764.3 BBT95894866.1.0 BBT95894866.0.2],Conns=[wye wye wye],kvs=[7.967 0.12 0.12],kvas=[10.000000000 10.000000000 10.000000000],Taps=[1,1.000000000,1.000000000],%loadloss=1.800000000,%noloadloss=0.450000000
new transformer.1028047 Phases=1,Windings=3,Buses=[BMT119992205.1 BBT95915082.1.0 BBT95915082.0.2],Conns=[wye wye wye],kvs=[7.967 0.12 0.12],kvas=[35.000000000 35.000000000 35.000000000],Taps=[1,1.000000000,1.000000000],%loadloss=1.410000000,%noloadloss=0.433000000
new transformer.1028159 Phases=3,Windings=2,Buses=[BMT173913442.1.2.3 BBT95964537.1.2.3.0],Conns=[delta wye],kvs=[13.8 0.22],kvas=[30.000000000 30.000000000],Taps=[1,1.000000000],%loadloss=1.667000000,%noloadloss=0.433333333
new transformer.1029279 Phases=1,Windings=3,Buses=[BMT169923148.3 BBT96903209.1.0 BBT96903209.0.2],Conns=[wye wye wye],kvs=[7.967 0.12 0.12],kvas=[10.000000000 10.000000000 10.000000000],Taps=[1,1.000000000,1.000000000],%loadloss=1.800000000,%noloadloss=0.450000000
new transformer.1029314 Phases=1,Windings=3,Buses=[BMT167729380.1 BBT96916467.1.0 BBT96916467.0.2],Conns=[wye wye wye],kvs=[7.967 0.12 0.12],kvas=[15.000000000 15.000000000 15.000000000],Taps=[1,1.000000000,1.000000000],%loadloss=1.600000000,%noloadloss=0.400000000
new transformer.1029349 Phases=1,Windings=3,Buses=[BMT119953383.1 BBT96927695.1.0 BBT96927695.0.2],Conns=[wye wye wye],kvs=[7.967 0.12 0.12],kvas=[5.000000000 5.000000000 5.000000000],Taps=[1,1.000000000,1.000000000],%loadloss=1.900000000,%noloadloss=0.600000000
new transformer.1035397 Phases=3,Windings=2,Buses=[BMT159223390.1.2.3 BBT101485073.1.2.3.0],Conns=[delta wye],kvs=[13.8 0.22],kvas=[75.000000000 75.000000000],Taps=[1,1.000000000],%loadloss=1.340000000,%noloadloss=0.340000000
new transformer.1035544 Phases=1,Windings=3,Buses=[BMT119981859.1 BBT101601721.1.0 BBT101601721.0.2],Conns=[wye wye wye],kvs=[7.967 0.12 0.12],kvas=[5.000000000 5.000000000 5.000000000],Taps=[1,1.000000000,1.000000000],%loadloss=1.900000000,%noloadloss=0.600000000
new transformer.1035642 Phases=3,Windings=2,Buses=[BMT151080996.1.2.3 BBT101702878.1.2.3.0],Conns=[delta wye],kvs=[13.8 0.22],kvas=[30.000000000 30.000000000],Taps=[1,1.000000000],%loadloss=1.667000000,%noloadloss=0.433333333
new transformer.1035649 Phases=3,Windings=2,Buses=[BMT151080997.1.2.3 BBT101706413.1.2.3.0],Conns=[delta wye],kvs=[13.8 0.22],kvas=[30.000000000 30.000000000],Taps=[1,1.000000000],%loadloss=1.667000000,%noloadloss=0.433333333
new transformer.1035677 Phases=3,Windings=2,Buses=[BMT159223388.1.2.3 BBT101729450.1.2.3.0],Conns=[delta wye],kvs=[13.8 0.22],kvas=[45.000000000 45.000000000],Taps=[1,1.000000000],%loadloss=1.522000000,%noloadloss=0.377777778
new transformer.1035684 Phases=3,Windings=2,Buses=[BMT159223387.1.2.3 BBT101730255.1.2.3.0],Conns=[delta wye],kvs=[13.8 0.22],kvas=[45.000000000 45.000000000],Taps=[1,1.000000000],%loadloss=1.522000000,%noloadloss=0.377777778
new transformer.1035691 Phases=3,Windings=2,Buses=[BMT159223386.1.2.3 BBT101737563.1.2.3.0],Conns=[delta wye],kvs=[13.8 0.22],kvas=[45.000000000 45.000000000],Taps=[1,1.000000000],%loadloss=1.522000000,%noloadloss=0.377777778
new transformer.1035698 Phases=3,Windings=2,Buses=[BMT151076772.1.2.3 BBT101738886.1.2.3.0],Conns=[delta wye],kvs=[13.8 0.22],kvas=[45.000000000 45.000000000],Taps=[1,1.000000000],%loadloss=1.522000000,%noloadloss=0.377777778
new transformer.1006998 Phases=1,Windings=3,Buses=[BMT151057637.3 BBT85026169.1.0 BBT85026169.0.2],Conns=[wye wye wye],kvs=[7.967 0.12 0.12],kvas=[35.000000000 35.000000000 35.000000000],Taps=[1,1.000000000,1.000000000],%loadloss=1.410000000,%noloadloss=0.433000000
new transformer.1007005 Phases=1,Windings=3,Buses=[BMT151057636.2 BBT85027716.1.0 BBT85027716.0.2],Conns=[wye wye wye],kvs=[7.967 0.12 0.12],kvas=[35.000000000 35.000000000 35.000000000],Taps=[1,1.000000000,1.000000000],%loadloss=1.410000000,%noloadloss=0.433000000
new transformer.1007012 Phases=1,Windings=3,Buses=[BMT151057635.1 BBT85029641.1.0 BBT85029641.0.2],Conns=[wye wye wye],kvs=[7.967 0.12 0.12],kvas=[35.000000000 35.000000000 35.000000000],Taps=[1,1.000000000,1.000000000],%loadloss=1.410000000,%noloadloss=0.433000000
new transformer.1007173 Phases=1,Windings=3,Buses=[BMT168122181.3 BBT92329570.1.0 BBT92329570.0.2],Conns=[wye wye wye],kvs=[7.967 0.12 0.12],kvas=[5.000000000 5.000000000 5.000000000],Taps=[1,1.000000000,1.000000000],%loadloss=1.900000000,%noloadloss=0.600000000
new transformer.1007180 Phases=1,Windings=3,Buses=[BMT168122180.3 BBT92329633.1.0 BBT92329633.0.2],Conns=[wye wye wye],kvs=[7.967 0.12 0.12],kvas=[5.000000000 5.000000000 5.000000000],Taps=[1,1.000000000,1.000000000],%loadloss=1.900000000,%noloadloss=0.600000000
new transformer.1013032 Phases=1,Windings=3,Buses=[BMT159426680.1 BBT99521076.1.0 BBT99521076.0.2],Conns=[wye wye wye],kvs=[7.967 0.12 0.12],kvas=[5.000000000 5.000000000 5.000000000],Taps=[1,1.000000000,1.000000000],%loadloss=1.900000000,%noloadloss=0.600000000
new transformer.1022195 Phases=1,Windings=3,Buses=[BMT168122174.3 BBT92338460.1.0 BBT92338460.0.2],Conns=[wye wye wye],kvs=[7.967 0.12 0.12],kvas=[5.000000000 5.000000000 5.000000000],Taps=[1,1.000000000,1.000000000],%loadloss=1.900000000,%noloadloss=0.600000000
new transformer.1030196 Phases=1,Windings=3,Buses=[BMT119986192.1 BBT98088736.1.0 BBT98088736.0.2],Conns=[wye wye wye],kvs=[7.967 0.12 0.12],kvas=[5.000000000 5.000000000 5.000000000],Taps=[1,1.000000000,1.000000000],%loadloss=1.900000000,%noloadloss=0.600000000
new transformer.1030273 Phases=1,Windings=3,Buses=[BMT168743755.3 BBT98150903.1.0 BBT98150903.0.2],Conns=[wye wye wye],kvs=[7.967 0.12 0.12],kvas=[10.000000000 10.000000000 10.000000000],Taps=[1,1.000000000,1.000000000],%loadloss=1.800000000,%noloadloss=0.450000000
new transformer.1031029 Phases=1,Windings=3,Buses=[BMT129111560.3 BBT98700263.1.0 BBT98700263.0.2],Conns=[wye wye wye],kvs=[7.967 0.12 0.12],kvas=[5.000000000 5.000000000 5.000000000],Taps=[1,1.000000000,1.000000000],%loadloss=1.900000000,%noloadloss=0.600000000
new transformer.1037777 Phases=1,Windings=3,Buses=[BMT160540697.2 BBT103462657.1.0 BBT103462657.0.2],Conns=[wye wye wye],kvs=[7.967 0.12 0.12],kvas=[5.000000000 5.000000000 5.000000000],Taps=[1,1.000000000,1.000000000],%loadloss=1.900000000,%noloadloss=0.600000000
new transformer.1045078 Phases=1,Windings=3,Buses=[BMT168743752.3 BBT110988931.1.0 BBT110988931.0.2],Conns=[wye wye wye],kvs=[7.967 0.12 0.12],kvas=[10.000000000 10.000000000 10.000000000],Taps=[1,1.000000000,1.000000000],%loadloss=1.800000000,%noloadloss=0.450000000
new transformer.1045162 Phases=1,Windings=3,Buses=[BMT168743748.3 BBT111020487.1.0 BBT111020487.0.2],Conns=[wye wye wye],kvs=[7.967 0.12 0.12],kvas=[10.000000000 10.000000000 10.000000000],Taps=[1,1.000000000,1.000000000],%loadloss=1.800000000,%noloadloss=0.450000000
new transformer.1045344 Phases=3,Windings=2,Buses=[BMT153684206.1.2.3 BBT111143890.1.2.3.0],Conns=[delta wye],kvs=[13.8 0.22],kvas=[45.000000000 45.000000000],Taps=[1,1.000000000],%loadloss=1.522000000,%noloadloss=0.377777778
new transformer.1045351 Phases=3,Windings=2,Buses=[BMT153684208.1.2.3 BBT111147404.1.2.3.0],Conns=[delta wye],kvs=[13.8 0.22],kvas=[30.000000000 30.000000000],Taps=[1,1.000000000],%loadloss=1.667000000,%noloadloss=0.433333333
new transformer.1045435 Phases=3,Windings=2,Buses=[BMT153688743.1.2.3 BBT111188578.1.2.3.0],Conns=[delta wye],kvs=[13.8 0.22],kvas=[30.000000000 30.000000000],Taps=[1,1.000000000],%loadloss=1.667000000,%noloadloss=0.433333333
new transformer.1045554 Phases=3,Windings=2,Buses=[BMT153684207.1.2.3 BBT111312002.1.2.3.0],Conns=[delta wye],kvs=[13.8 0.22],kvas=[30.000000000 30.000000000],Taps=[1,1.000000000],%loadloss=1.667000000,%noloadloss=0.433333333
new transformer.1045610 Phases=3,Windings=2,Buses=[BMT153684204.1.2.3 BBT111359070.1.2.3.0],Conns=[delta wye],kvs=[13.8 0.22],kvas=[30.000000000 30.000000000],Taps=[1,1.000000000],%loadloss=1.667000000,%noloadloss=0.433333333
new transformer.1045645 Phases=3,Windings=2,Buses=[BMT158758535.1.2.3 BBT111373686.1.2.3.0],Conns=[delta wye],kvs=[13.8 0.22],kvas=[30.000000000 30.000000000],Taps=[1,1.000000000],%loadloss=1.667000000,%noloadloss=0.433333333
new transformer.1045841 Phases=3,Windings=2,Buses=[BMT158811814.1.2.3 BBT111515464.1.2.3.0],Conns=[delta wye],kvs=[13.8 0.22],kvas=[30.000000000 30.000000000],Taps=[1,1.000000000],%loadloss=1.667000000,%noloadloss=0.433333333
new transformer.1053408 Phases=3,Windings=2,Buses=[BMT138710135.1.2.3 BBT118155993.1.2.3.0],Conns=[delta wye],kvs=[13.8 0.22],kvas=[45.000000000 45.000000000],Taps=[1,1.000000000],%loadloss=1.522000000,%noloadloss=0.377777778
new transformer.1053443 Phases=3,Windings=2,Buses=[BMT120013436.1.2.3 BBT118183314.1.2.3.0],Conns=[delta wye],kvs=[13.8 0.22],kvas=[75.000000000 75.000000000],Taps=[1,1.000000000],%loadloss=1.340000000,%noloadloss=0.340000000
new transformer.1053611 Phases=3,Windings=2,Buses=[BMT172070537.1.2.3 BBT118330223.1.2.3.0],Conns=[delta wye],kvs=[13.8 0.22],kvas=[30.000000000 30.000000000],Taps=[1,1.000000000],%loadloss=1.667000000,%noloadloss=0.433333333
new transformer.1060576 Phases=3,Windings=2,Buses=[BMT158512016.1.2.3 BBT129171046.1.2.3.0],Conns=[delta wye],kvs=[13.8 0.22],kvas=[75.000000000 75.000000000],Taps=[1,1.000000000],%loadloss=1.340000000,%noloadloss=0.340000000
new transformer.1011870 Phases=3,Windings=2,Buses=[BMT120020226.1.2.3 BBT87095327.1.2.3.0],Conns=[delta wye],kvs=[13.8 0.22],kvas=[45.000000000 45.000000000],Taps=[1,1.000000000],%loadloss=1.522000000,%noloadloss=0.377777778
new transformer.1012164 Phases=1,Windings=3,Buses=[BMT168675907.2 BBT87201328.1.0 BBT87201328.0.2],Conns=[wye wye wye],kvs=[7.967 0.12 0.12],kvas=[5.000000000 5.000000000 5.000000000],Taps=[1,1.000000000,1.000000000],%loadloss=1.900000000,%noloadloss=0.600000000
new transformer.1012598 Phases=1,Windings=3,Buses=[BMT159280355.3 BBT97712766.1.0 BBT97712766.0.2],Conns=[wye wye wye],kvs=[7.967 0.12 0.12],kvas=[5.000000000 5.000000000 5.000000000],Taps=[1,1.000000000,1.000000000],%loadloss=1.900000000,%noloadloss=0.600000000
new transformer.1012906 Phases=1,Windings=3,Buses=[BMT174568865.3 BBT98341338.1.0 BBT98341338.0.2],Conns=[wye wye wye],kvs=[7.967 0.12 0.12],kvas=[5.000000000 5.000000000 5.000000000],Taps=[1,1.000000000,1.000000000],%loadloss=1.900000000,%noloadloss=0.600000000
new transformer.1019122 Phases=1,Windings=3,Buses=[BMT119998148.2 BBT94657791.1.0 BBT94657791.0.2],Conns=[wye wye wye],kvs=[7.967 0.12 0.12],kvas=[5.000000000 5.000000000 5.000000000],Taps=[1,1.000000000,1.000000000],%loadloss=1.900000000,%noloadloss=0.600000000
new transformer.1019157 Phases=1,Windings=3,Buses=[BMT119950296.2 BBT104049684.1.0 BBT104049684.0.2],Conns=[wye wye wye],kvs=[7.967 0.12 0.12],kvas=[5.000000000 5.000000000 5.000000000],Taps=[1,1.000000000,1.000000000],%loadloss=1.900000000,%noloadloss=0.600000000
new transformer.1019178 Phases=1,Windings=3,Buses=[BMT119950289.2 BBT104049908.1.0 BBT104049908.0.2],Conns=[wye wye wye],kvs=[7.967 0.12 0.12],kvas=[5.000000000 5.000000000 5.000000000],Taps=[1,1.000000000,1.000000000],%loadloss=1.900000000,%noloadloss=0.600000000
new transformer.1019381 Phases=1,Windings=3,Buses=[BMT176469295.3 BBT91086090.1.0 BBT91086090.0.2],Conns=[wye wye wye],kvs=[7.967 0.12 0.12],kvas=[5.000000000 5.000000000 5.000000000],Taps=[1,1.000000000,1.000000000],%loadloss=1.900000000,%noloadloss=0.600000000
new transformer.1019612 Phases=1,Windings=3,Buses=[BMT158696705.1 BBT93130461.1.0 BBT93130461.0.2],Conns=[wye wye wye],kvs=[7.967 0.12 0.12],kvas=[10.000000000 10.000000000 10.000000000],Taps=[1,1.000000000,1.000000000],%loadloss=1.800000000,%noloadloss=0.450000000
new transformer.1026332 Phases=1,Windings=3,Buses=[BMT119963442.1 BBT94855086.1.0 BBT94855086.0.2],Conns=[wye wye wye],kvs=[7.967 0.12 0.12],kvas=[35.000000000 35.000000000 35.000000000],Taps=[1,1.000000000,1.000000000],%loadloss=1.410000000,%noloadloss=0.433000000
new transformer.1033794 Phases=1,Windings=3,Buses=[BMT119985163.2 BBT100188785.1.0 BBT100188785.0.2],Conns=[wye wye wye],kvs=[7.967 0.12 0.12],kvas=[5.000000000 5.000000000 5.000000000],Taps=[1,1.000000000,1.000000000],%loadloss=1.900000000,%noloadloss=0.600000000
new transformer.1034662 Phases=1,Windings=3,Buses=[BMT149813851.2 BBT100931933.1.0 BBT100931933.0.2],Conns=[wye wye wye],kvs=[7.967 0.12 0.12],kvas=[35.000000000 35.000000000 35.000000000],Taps=[1,1.000000000,1.000000000],%loadloss=1.410000000,%noloadloss=0.433000000
new transformer.1034851 Phases=1,Windings=3,Buses=[BMT149813859.2 BBT101024347.1.0 BBT101024347.0.2],Conns=[wye wye wye],kvs=[7.967 0.12 0.12],kvas=[35.000000000 35.000000000 35.000000000],Taps=[1,1.000000000,1.000000000],%loadloss=1.410000000,%noloadloss=0.433000000
new transformer.1043475 Phases=3,Windings=2,Buses=[BMT173760418.1.2.3 BBT108719496.1.2.3.0],Conns=[delta wye],kvs=[13.8 0.22],kvas=[30.000000000 30.000000000],Taps=[1,1.000000000],%loadloss=1.667000000,%noloadloss=0.433333333
new transformer.1043594 Phases=1,Windings=3,Buses=[BMT171009325.2 BBT108853532.1.0 BBT108853532.0.2],Conns=[wye wye wye],kvs=[7.967 0.12 0.12],kvas=[35.000000000 35.000000000 35.000000000],Taps=[1,1.000000000,1.000000000],%loadloss=1.410000000,%noloadloss=0.433000000
new transformer.1043951 Phases=1,Windings=3,Buses=[BMT119946600.3 BBT109353941.1.0 BBT109353941.0.2],Conns=[wye wye wye],kvs=[7.967 0.12 0.12],kvas=[5.000000000 5.000000000 5.000000000],Taps=[1,1.000000000,1.000000000],%loadloss=1.900000000,%noloadloss=0.600000000
new transformer.1044448 Phases=1,Windings=3,Buses=[BMT162401614.2 BBT109828660.1.0 BBT109828660.0.2],Conns=[wye wye wye],kvs=[7.967 0.12 0.12],kvas=[35.000000000 35.000000000 35.000000000],Taps=[1,1.000000000,1.000000000],%loadloss=1.410000000,%noloadloss=0.433000000
new transformer.1044497 Phases=1,Windings=3,Buses=[BMT160593978.3 BBT109880831.1.0 BBT109880831.0.2],Conns=[wye wye wye],kvs=[7.967 0.12 0.12],kvas=[35.000000000 35.000000000 35.000000000],Taps=[1,1.000000000,1.000000000],%loadloss=1.410000000,%noloadloss=0.433000000
new transformer.1058756 Phases=1,Windings=3,Buses=[BMT158394488.2 BBT128401795.1.0 BBT128401795.0.2],Conns=[wye wye wye],kvs=[7.967 0.12 0.12],kvas=[35.000000000 35.000000000 35.000000000],Taps=[1,1.000000000,1.000000000],%loadloss=1.410000000,%noloadloss=0.433000000
new transformer.1065987 Phases=3,Windings=2,Buses=[BMT166741266.1.2.3 BBT131525832.1.2.3.0],Conns=[delta wye],kvs=[13.8 0.22],kvas=[45.000000000 45.000000000],Taps=[1,1.000000000],%loadloss=1.522000000,%noloadloss=0.377777778
new transformer.1066029 Phases=3,Windings=2,Buses=[BMT166741257.1.2.3 BBT131542968.1.2.3.0],Conns=[delta wye],kvs=[13.8 0.22],kvas=[45.000000000 45.000000000],Taps=[1,1.000000000],%loadloss=1.522000000,%noloadloss=0.377777778
new transformer.1066078 Phases=3,Windings=2,Buses=[BMT166741261.1.2.3 BBT131561826.1.2.3.0],Conns=[delta wye],kvs=[13.8 0.22],kvas=[45.000000000 45.000000000],Taps=[1,1.000000000],%loadloss=1.522000000,%noloadloss=0.377777778
new transformer.1003400 Phases=1,Windings=3,Buses=[BMT160307572.2 BBT83523465.1.0 BBT83523465.0.2],Conns=[wye wye wye],kvs=[7.967 0.12 0.12],kvas=[5.000000000 5.000000000 5.000000000],Taps=[1,1.000000000,1.000000000],%loadloss=1.900000000,%noloadloss=0.600000000
new transformer.1003435 Phases=1,Windings=3,Buses=[BMT119943555.2 BBT83951361.1.0 BBT83951361.0.2],Conns=[wye wye wye],kvs=[7.967 0.12 0.12],kvas=[10.000000000 10.000000000 10.000000000],Taps=[1,1.000000000,1.000000000],%loadloss=1.800000000,%noloadloss=0.450000000
new transformer.1009588 Phases=1,Windings=3,Buses=[BMT176729867.1 BBT86168940.1.0 BBT86168940.0.2],Conns=[wye wye wye],kvs=[7.967 0.12 0.12],kvas=[35.000000000 35.000000000 35.000000000],Taps=[1,1.000000000,1.000000000],%loadloss=1.410000000,%noloadloss=0.433000000
new transformer.1009735 Phases=1,Windings=3,Buses=[BMT151193266.1 BBT86212984.1.0 BBT86212984.0.2],Conns=[wye wye wye],kvs=[7.967 0.12 0.12],kvas=[5.000000000 5.000000000 5.000000000],Taps=[1,1.000000000,1.000000000],%loadloss=1.900000000,%noloadloss=0.600000000
new transformer.1010043 Phases=1,Windings=3,Buses=[BMT120017181.1 BBT86295458.1.0 BBT86295458.0.2],Conns=[wye wye wye],kvs=[7.967 0.12 0.12],kvas=[5.000000000 5.000000000 5.000000000],Taps=[1,1.000000000,1.000000000],%loadloss=1.900000000,%noloadloss=0.600000000
new transformer.1010302 Phases=1,Windings=3,Buses=[BMT120017167.1 BBT86440260.1.0 BBT86440260.0.2],Conns=[wye wye wye],kvs=[7.967 0.12 0.12],kvas=[5.000000000 5.000000000 5.000000000],Taps=[1,1.000000000,1.000000000],%loadloss=1.900000000,%noloadloss=0.600000000
new transformer.1010316 Phases=1,Windings=3,Buses=[BMT176514648.2 BBT86446175.1.0 BBT86446175.0.2],Conns=[wye wye wye],kvs=[7.967 0.12 0.12],kvas=[10.000000000 10.000000000 10.000000000],Taps=[1,1.000000000,1.000000000],%loadloss=1.800000000,%noloadloss=0.450000000
new transformer.1016875 Phases=1,Windings=3,Buses=[BMT159608107.2 BBT103906849.1.0 BBT103906849.0.2],Conns=[wye wye wye],kvs=[7.967 0.12 0.12],kvas=[5.000000000 5.000000000 5.000000000],Taps=[1,1.000000000,1.000000000],%loadloss=1.900000000,%noloadloss=0.600000000
new transformer.1017526 Phases=1,Windings=3,Buses=[BMT128677686.1 BBT90175922.1.0 BBT90175922.0.2],Conns=[wye wye wye],kvs=[7.967 0.12 0.12],kvas=[10.000000000 10.000000000 10.000000000],Taps=[1,1.000000000,1.000000000],%loadloss=1.800000000,%noloadloss=0.450000000
new transformer.1018128 Phases=1,Windings=3,Buses=[BMT170777448.3 BBT103957648.1.0 BBT103957648.0.2],Conns=[wye wye wye],kvs=[7.967 0.12 0.12],kvas=[5.000000000 5.000000000 5.000000000],Taps=[1,1.000000000,1.000000000],%loadloss=1.900000000,%noloadloss=0.600000000
new transformer.1025058 Phases=1,Windings=3,Buses=[BMT119955840.1 BBT94208321.1.0 BBT94208321.0.2],Conns=[wye wye wye],kvs=[7.967 0.12 0.12],kvas=[5.000000000 5.000000000 5.000000000],Taps=[1,1.000000000,1.000000000],%loadloss=1.900000000,%noloadloss=0.600000000
new transformer.1039268 Phases=1,Windings=3,Buses=[BMT154797977.2 BBT104272361.1.0 BBT104272361.0.2],Conns=[wye wye wye],kvs=[7.967 0.12 0.12],kvas=[5.000000000 5.000000000 5.000000000],Taps=[1,1.000000000,1.000000000],%loadloss=1.900000000,%noloadloss=0.600000000
new transformer.1039282 Phases=1,Windings=3,Buses=[BMT154797981.2 BBT104276414.1.0 BBT104276414.0.2],Conns=[wye wye wye],kvs=[7.967 0.12 0.12],kvas=[5.000000000 5.000000000 5.000000000],Taps=[1,1.000000000,1.000000000],%loadloss=1.900000000,%noloadloss=0.600000000
new transformer.1047318 Phases=1,Windings=3,Buses=[BMT159746281.2 BBT112990308.1.0 BBT112990308.0.2],Conns=[wye wye wye],kvs=[7.967 0.12 0.12],kvas=[15.000000000 15.000000000 15.000000000],Taps=[1,1.000000000,1.000000000],%loadloss=1.600000000,%noloadloss=0.400000000
new transformer.1047353 Phases=1,Windings=3,Buses=[BMT150929223.3 BBT113027443.1.0 BBT113027443.0.2],Conns=[wye wye wye],kvs=[7.967 0.12 0.12],kvas=[35.000000000 35.000000000 35.000000000],Taps=[1,1.000000000,1.000000000],%loadloss=1.410000000,%noloadloss=0.433000000
new transformer.1054542 Phases=1,Windings=3,Buses=[BMT164912375.1 BBT119319925.1.0 BBT119319925.0.2],Conns=[wye wye wye],kvs=[7.967 0.12 0.12],kvas=[35.000000000 35.000000000 35.000000000],Taps=[1,1.000000000,1.000000000],%loadloss=1.410000000,%noloadloss=0.433000000
new transformer.1061626 Phases=3,Windings=2,Buses=[BMT174962747.1.2.3 BBT129648334.1.2.3.0],Conns=[delta wye],kvs=[13.8 0.22],kvas=[45.000000000 45.000000000],Taps=[1,1.000000000],%loadloss=1.522000000,%noloadloss=0.377777778
new transformer.1062074 Phases=3,Windings=2,Buses=[BMT159307175.1.2.3 BBT129804049.1.2.3.0],Conns=[delta wye],kvs=[13.8 0.22],kvas=[75.000000000 75.000000000],Taps=[1,1.000000000],%loadloss=1.340000000,%noloadloss=0.340000000
new transformer.1062585 Phases=3,Windings=2,Buses=[BMT159823712.1.2.3 BBT129971125.1.2.3.0],Conns=[delta wye],kvs=[13.8 0.22],kvas=[45.000000000 45.000000000],Taps=[1,1.000000000],%loadloss=1.522000000,%noloadloss=0.377777778
new transformer.1062592 Phases=3,Windings=2,Buses=[BMT168581757.1.2.3 BBT129973428.1.2.3.0],Conns=[delta wye],kvs=[13.8 0.22],kvas=[30.000000000 30.000000000],Taps=[1,1.000000000],%loadloss=1.667000000,%noloadloss=0.433333333
new transformer.1077194 Phases=3,Windings=2,Buses=[BMT140194730.1.2.3 BBT135180007.1.2.3.0],Conns=[delta wye],kvs=[13.8 0.22],kvas=[45.000000000 45.000000000],Taps=[1,1.000000000],%loadloss=1.522000000,%noloadloss=0.377777778
new transformer.1077215 Phases=3,Windings=2,Buses=[BMT174973246.1.2.3 BBT135183416.1.2.3.0],Conns=[delta wye],kvs=[13.8 0.22],kvas=[45.000000000 45.000000000],Taps=[1,1.000000000],%loadloss=1.522000000,%noloadloss=0.377777778
new transformer.1077306 Phases=3,Windings=2,Buses=[BMT160919061.1.2.3 BBT135221769.1.2.3.0],Conns=[delta wye],kvs=[13.8 0.22],kvas=[45.000000000 45.000000000],Taps=[1,1.000000000],%loadloss=1.522000000,%noloadloss=0.377777778
new transformer.1077733 Phases=3,Windings=2,Buses=[BMT173760139.1.2.3 BBT135393080.1.2.3.0],Conns=[delta wye],kvs=[13.8 0.22],kvas=[30.000000000 30.000000000],Taps=[1,1.000000000],%loadloss=1.667000000,%noloadloss=0.433333333
new transformer.1060667 Phases=3,Windings=2,Buses=[BMT141311797.1.2.3 BBT129206298.1.2.3.0],Conns=[delta wye],kvs=[13.8 0.22],kvas=[75.000000000 75.000000000],Taps=[1,1.000000000],%loadloss=1.340000000,%noloadloss=0.340000000
new transformer.1061241 Phases=3,Windings=2,Buses=[BMT140706255.1.2.3 BBT129524546.1.2.3.0],Conns=[delta wye],kvs=[13.8 0.22],kvas=[250.000000000 250.000000000],Taps=[1,1.000000000],%loadloss=1.080000000,%noloadloss=0.249000000
new transformer.1061248 Phases=3,Windings=2,Buses=[BMT140706248.1.2.3 BBT129528039.1.2.3.0],Conns=[delta wye],kvs=[13.8 0.22],kvas=[45.000000000 45.000000000],Taps=[1,1.000000000],%loadloss=1.522000000,%noloadloss=0.377777778
new transformer.1067793 Phases=3,Windings=2,Buses=[BMT132387889.1.2.3 BBT132384781.1.2.3.0],Conns=[delta wye],kvs=[13.8 0.22],kvas=[30.000000000 30.000000000],Taps=[1,1.000000000],%loadloss=1.667000000,%noloadloss=0.433333333
new transformer.1068171 Phases=3,Windings=2,Buses=[BMT164161578.1.2.3 BBT132623110.1.2.3.0],Conns=[delta wye],kvs=[13.8 0.22],kvas=[75.000000000 75.000000000],Taps=[1,1.000000000],%loadloss=1.340000000,%noloadloss=0.340000000
new transformer.1068423 Phases=3,Windings=2,Buses=[BMT153784207.1.2.3 BBT132683282.1.2.3.0],Conns=[delta wye],kvs=[13.8 0.22],kvas=[45.000000000 45.000000000],Taps=[1,1.000000000],%loadloss=1.522000000,%noloadloss=0.377777778
new transformer.1068766 Phases=3,Windings=2,Buses=[BMT136596345.1.2.3 BBT132816674.1.2.3.0],Conns=[delta wye],kvs=[13.8 0.22],kvas=[150.000000000 150.000000000],Taps=[1,1.000000000],%loadloss=1.127000000,%noloadloss=0.280000000
new transformer.1068773 Phases=3,Windings=2,Buses=[BMT168661937.1.2.3 BBT132817514.1.2.3.0],Conns=[delta wye],kvs=[13.8 0.22],kvas=[150.000000000 150.000000000],Taps=[1,1.000000000],%loadloss=1.127000000,%noloadloss=0.280000000
new transformer.1068829 Phases=3,Windings=2,Buses=[BMT136634145.1.2.3 BBT132826201.1.2.3.0],Conns=[delta wye],kvs=[13.8 0.22],kvas=[150.000000000 150.000000000],Taps=[1,1.000000000],%loadloss=1.127000000,%noloadloss=0.280000000
new transformer.1069025 Phases=1,Windings=3,Buses=[BMT174203408.3 BBT132890020.1.0 BBT132890020.0.2],Conns=[wye wye wye],kvs=[7.967 0.12 0.12],kvas=[5.000000000 5.000000000 5.000000000],Taps=[1,1.000000000,1.000000000],%loadloss=1.900000000,%noloadloss=0.600000000
new transformer.1076060 Phases=1,Windings=3,Buses=[BMT166517609.1 BBT134813809.1.0 BBT134813809.0.2],Conns=[wye wye wye],kvs=[7.967 0.12 0.12],kvas=[10.000000000 10.000000000 10.000000000],Taps=[1,1.000000000,1.000000000],%loadloss=1.800000000,%noloadloss=0.450000000
new transformer.1076522 Phases=3,Windings=2,Buses=[BMT151164888.1.2.3 BBT134972555.1.2.3.0],Conns=[delta wye],kvs=[13.8 0.22],kvas=[30.000000000 30.000000000],Taps=[1,1.000000000],%loadloss=1.667000000,%noloadloss=0.433333333
new transformer.1076648 Phases=3,Windings=2,Buses=[BMT136634138.1.2.3 BBT135021758.1.2.3.0],Conns=[delta wye],kvs=[13.8 0.22],kvas=[45.000000000 45.000000000],Taps=[1,1.000000000],%loadloss=1.522000000,%noloadloss=0.377777778
new transformer.1076655 Phases=3,Windings=2,Buses=[BMT135027624.1.2.3 BBT135027638.1.2.3.0],Conns=[delta wye],kvs=[13.8 0.22],kvas=[150.000000000 150.000000000],Taps=[1,1.000000000],%loadloss=1.127000000,%noloadloss=0.280000000
new transformer.1082626 Phases=3,Windings=2,Buses=[BMT172070476.1.2.3 BBT137040411.1.2.3.0],Conns=[delta wye],kvs=[13.8 0.22],kvas=[45.000000000 45.000000000],Taps=[1,1.000000000],%loadloss=1.522000000,%noloadloss=0.377777778
new transformer.1084068 Phases=1,Windings=3,Buses=[BMT137524426.3 BBT137524433.1.0 BBT137524433.0.2],Conns=[wye wye wye],kvs=[7.967 0.12 0.12],kvas=[5.000000000 5.000000000 5.000000000],Taps=[1,1.000000000,1.000000000],%loadloss=1.900000000,%noloadloss=0.600000000
new transformer.1090060 Phases=3,Windings=2,Buses=[BMT155673191.1.2.3 BBT138859368.1.2.3.0],Conns=[delta wye],kvs=[13.8 0.22],kvas=[75.000000000 75.000000000],Taps=[1,1.000000000],%loadloss=1.340000000,%noloadloss=0.340000000
new transformer.1090340 Phases=1,Windings=3,Buses=[BMT174944910.3 BBT138927597.1.0 BBT138927597.0.2],Conns=[wye wye wye],kvs=[7.967 0.12 0.12],kvas=[15.000000000 15.000000000 15.000000000],Taps=[1,1.000000000,1.000000000],%loadloss=1.600000000,%noloadloss=0.400000000
new transformer.1090347 Phases=3,Windings=2,Buses=[BMT165077478.1.2.3 BBT138934842.1.2.3.0],Conns=[delta wye],kvs=[13.8 0.22],kvas=[75.000000000 75.000000000],Taps=[1,1.000000000],%loadloss=1.340000000,%noloadloss=0.340000000
new transformer.1090382 Phases=3,Windings=2,Buses=[BMT173760136.1.2.3 BBT138941737.1.2.3.0],Conns=[delta wye],kvs=[13.8 0.22],kvas=[45.000000000 45.000000000],Taps=[1,1.000000000],%loadloss=1.522000000,%noloadloss=0.377777778
new transformer.1090851 Phases=1,Windings=3,Buses=[BMT175885094.2 BBT139077866.1.0 BBT139077866.0.2],Conns=[wye wye wye],kvs=[7.967 0.12 0.12],kvas=[5.000000000 5.000000000 5.000000000],Taps=[1,1.000000000,1.000000000],%loadloss=1.900000000,%noloadloss=0.600000000
new transformer.1097333 Phases=3,Windings=2,Buses=[BMT140738007.1.2.3 BBT140730286.1.2.3.0],Conns=[delta wye],kvs=[13.8 0.22],kvas=[30.000000000 30.000000000],Taps=[1,1.000000000],%loadloss=1.667000000,%noloadloss=0.433333333
new transformer.1066085 Phases=3,Windings=2,Buses=[BMT166741259.1.2.3 BBT131563709.1.2.3.0],Conns=[delta wye],kvs=[13.8 0.22],kvas=[45.000000000 45.000000000],Taps=[1,1.000000000],%loadloss=1.522000000,%noloadloss=0.377777778
new transformer.1066092 Phases=3,Windings=2,Buses=[BMT166741258.1.2.3 BBT131565886.1.2.3.0],Conns=[delta wye],kvs=[13.8 0.22],kvas=[45.000000000 45.000000000],Taps=[1,1.000000000],%loadloss=1.522000000,%noloadloss=0.377777778
new transformer.1066267 Phases=1,Windings=3,Buses=[BMT131633702.1 BBT131633709.1.0 BBT131633709.0.2],Conns=[wye wye wye],kvs=[7.967 0.12 0.12],kvas=[5.000000000 5.000000000 5.000000000],Taps=[1,1.000000000,1.000000000],%loadloss=1.900000000,%noloadloss=0.600000000
new transformer.1073673 Phases=1,Windings=3,Buses=[BMT152715441.2 BBT134211487.1.0 BBT134211487.0.2],Conns=[wye wye wye],kvs=[7.967 0.12 0.12],kvas=[5.000000000 5.000000000 5.000000000],Taps=[1,1.000000000,1.000000000],%loadloss=1.900000000,%noloadloss=0.600000000
new transformer.1074247 Phases=3,Windings=2,Buses=[BMT154920097.1.2.3 BBT134317026.1.2.3.0],Conns=[delta wye],kvs=[13.8 0.22],kvas=[45.000000000 45.000000000],Taps=[1,1.000000000],%loadloss=1.522000000,%noloadloss=0.377777778
new transformer.1074254 Phases=3,Windings=2,Buses=[BMT154920098.1.2.3 BBT134317306.1.2.3.0],Conns=[delta wye],kvs=[13.8 0.22],kvas=[45.000000000 45.000000000],Taps=[1,1.000000000],%loadloss=1.522000000,%noloadloss=0.377777778
new transformer.1074261 Phases=3,Windings=2,Buses=[BMT154105629.1.2.3 BBT134318678.1.2.3.0],Conns=[delta wye],kvs=[13.8 0.22],kvas=[45.000000000 45.000000000],Taps=[1,1.000000000],%loadloss=1.522000000,%noloadloss=0.377777778
new transformer.1074275 Phases=3,Windings=2,Buses=[BMT154105634.1.2.3 BBT134319798.1.2.3.0],Conns=[delta wye],kvs=[13.8 0.22],kvas=[45.000000000 45.000000000],Taps=[1,1.000000000],%loadloss=1.522000000,%noloadloss=0.377777778
new transformer.1074282 Phases=3,Windings=2,Buses=[BMT154105635.1.2.3 BBT134320141.1.2.3.0],Conns=[delta wye],kvs=[13.8 0.22],kvas=[45.000000000 45.000000000],Taps=[1,1.000000000],%loadloss=1.522000000,%noloadloss=0.377777778
new transformer.1080463 Phases=3,Windings=2,Buses=[BMT174408773.1.2.3 BBT136192396.1.2.3.0],Conns=[delta wye],kvs=[13.8 0.22],kvas=[45.000000000 45.000000000],Taps=[1,1.000000000],%loadloss=1.522000000,%noloadloss=0.377777778
new transformer.1080498 Phases=3,Windings=2,Buses=[BMT174408776.1.2.3 BBT136201153.1.2.3.0],Conns=[delta wye],kvs=[13.8 0.22],kvas=[45.000000000 45.000000000],Taps=[1,1.000000000],%loadloss=1.522000000,%noloadloss=0.377777778
new transformer.1080540 Phases=3,Windings=2,Buses=[BMT166741263.1.2.3 BBT136211436.1.2.3.0],Conns=[delta wye],kvs=[13.8 0.22],kvas=[45.000000000 45.000000000],Taps=[1,1.000000000],%loadloss=1.522000000,%noloadloss=0.377777778
new transformer.1080547 Phases=3,Windings=2,Buses=[BMT166741262.1.2.3 BBT136213795.1.2.3.0],Conns=[delta wye],kvs=[13.8 0.22],kvas=[45.000000000 45.000000000],Taps=[1,1.000000000],%loadloss=1.522000000,%noloadloss=0.377777778
new transformer.1081142 Phases=1,Windings=3,Buses=[BMT136414926.2 BBT136414415.1.0 BBT136414415.0.2],Conns=[wye wye wye],kvs=[7.967 0.12 0.12],kvas=[5.000000000 5.000000000 5.000000000],Taps=[1,1.000000000,1.000000000],%loadloss=1.900000000,%noloadloss=0.600000000
new transformer.1089423 Phases=1,Windings=3,Buses=[BMT162070453.3 BBT138712494.1.0 BBT138712494.0.2],Conns=[wye wye wye],kvs=[7.967 0.12 0.12],kvas=[5.000000000 5.000000000 5.000000000],Taps=[1,1.000000000,1.000000000],%loadloss=1.900000000,%noloadloss=0.600000000
new transformer.1089472 Phases=3,Windings=2,Buses=[BMT163679101.1.2.3 BBT138728762.1.2.3.0],Conns=[delta wye],kvs=[13.8 0.22],kvas=[45.000000000 45.000000000],Taps=[1,1.000000000],%loadloss=1.522000000,%noloadloss=0.377777778
new transformer.1089493 Phases=3,Windings=2,Buses=[BMT163679103.1.2.3 BBT138731849.1.2.3.0],Conns=[delta wye],kvs=[13.8 0.22],kvas=[45.000000000 45.000000000],Taps=[1,1.000000000],%loadloss=1.522000000,%noloadloss=0.377777778
new transformer.1089507 Phases=3,Windings=2,Buses=[BMT163679102.1.2.3 BBT138733109.1.2.3.0],Conns=[delta wye],kvs=[13.8 0.22],kvas=[45.000000000 45.000000000],Taps=[1,1.000000000],%loadloss=1.522000000,%noloadloss=0.377777778
new transformer.1089528 Phases=3,Windings=2,Buses=[BMT163679104.1.2.3 BBT138733963.1.2.3.0],Conns=[delta wye],kvs=[13.8 0.22],kvas=[45.000000000 45.000000000],Taps=[1,1.000000000],%loadloss=1.522000000,%noloadloss=0.377777778
new transformer.1102737 Phases=3,Windings=2,Buses=[BMT164161579.1.2.3 BBT142303382.1.2.3.0],Conns=[delta wye],kvs=[13.8 0.22],kvas=[150.000000000 150.000000000],Taps=[1,1.000000000],%loadloss=1.127000000,%noloadloss=0.280000000
new transformer.1035705 Phases=3,Windings=2,Buses=[BMT151076770.1.2.3 BBT101740412.1.2.3.0],Conns=[delta wye],kvs=[13.8 0.22],kvas=[30.000000000 30.000000000],Taps=[1,1.000000000],%loadloss=1.667000000,%noloadloss=0.433333333
new transformer.1035712 Phases=3,Windings=2,Buses=[BMT151076769.1.2.3 BBT101742519.1.2.3.0],Conns=[delta wye],kvs=[13.8 0.22],kvas=[45.000000000 45.000000000],Taps=[1,1.000000000],%loadloss=1.522000000,%noloadloss=0.377777778
new transformer.1036377 Phases=1,Windings=3,Buses=[BMT119986591.3 BBT102398769.1.0 BBT102398769.0.2],Conns=[wye wye wye],kvs=[7.967 0.12 0.12],kvas=[5.000000000 5.000000000 5.000000000],Taps=[1,1.000000000,1.000000000],%loadloss=1.900000000,%noloadloss=0.600000000
new transformer.1040983 Phases=1,Windings=3,Buses=[BMT171444075.1 BBT105740107.1.0 BBT105740107.0.2],Conns=[wye wye wye],kvs=[7.967 0.12 0.12],kvas=[5.000000000 5.000000000 5.000000000],Taps=[1,1.000000000,1.000000000],%loadloss=1.900000000,%noloadloss=0.600000000
new transformer.1042516 Phases=1,Windings=3,Buses=[BMT119948602.2 BBT107459020.1.0 BBT107459020.0.2],Conns=[wye wye wye],kvs=[7.967 0.12 0.12],kvas=[10.000000000 10.000000000 10.000000000],Taps=[1,1.000000000,1.000000000],%loadloss=1.800000000,%noloadloss=0.450000000
new transformer.1042544 Phases=1,Windings=3,Buses=[BMT119948609.2 BBT107483891.1.0 BBT107483891.0.2],Conns=[wye wye wye],kvs=[7.967 0.12 0.12],kvas=[15.000000000 15.000000000 15.000000000],Taps=[1,1.000000000,1.000000000],%loadloss=1.600000000,%noloadloss=0.400000000
new transformer.1048466 Phases=1,Windings=3,Buses=[BMT176436333.1 BBT114097309.1.0 BBT114097309.0.2],Conns=[wye wye wye],kvs=[7.967 0.12 0.12],kvas=[5.000000000 5.000000000 5.000000000],Taps=[1,1.000000000,1.000000000],%loadloss=1.900000000,%noloadloss=0.600000000
new transformer.1050041 Phases=3,Windings=2,Buses=[BMT174104228.1.2.3 BBT115737297.1.2.3.0],Conns=[delta wye],kvs=[13.8 0.22],kvas=[75.000000000 75.000000000],Taps=[1,1.000000000],%loadloss=1.340000000,%noloadloss=0.340000000
new transformer.1071468 Phases=3,Windings=2,Buses=[BMT169923153.1.2.3 BBT133705835.1.2.3.0],Conns=[delta wye],kvs=[13.8 0.22],kvas=[45.000000000 45.000000000],Taps=[1,1.000000000],%loadloss=1.522000000,%noloadloss=0.377777778
new transformer.1071538 Phases=1,Windings=3,Buses=[BMT133727913.2 BBT133727080.1.0 BBT133727080.0.2],Conns=[wye wye wye],kvs=[7.967 0.12 0.12],kvas=[35.000000000 35.000000000 35.000000000],Taps=[1,1.000000000,1.000000000],%loadloss=1.410000000,%noloadloss=0.433000000
new transformer.1071566 Phases=1,Windings=3,Buses=[BMT134013023.3 BBT133731357.1.0 BBT133731357.0.2],Conns=[wye wye wye],kvs=[7.967 0.12 0.12],kvas=[10.000000000 10.000000000 10.000000000],Taps=[1,1.000000000,1.000000000],%loadloss=1.800000000,%noloadloss=0.450000000
new transformer.1071909 Phases=3,Windings=2,Buses=[BMT172070294.1.2.3 BBT133819977.1.2.3.0],Conns=[delta wye],kvs=[13.8 0.22],kvas=[45.000000000 45.000000000],Taps=[1,1.000000000],%loadloss=1.522000000,%noloadloss=0.377777778
new transformer.1071951 Phases=3,Windings=2,Buses=[BMT172070287.1.2.3 BBT133825724.1.2.3.0],Conns=[delta wye],kvs=[13.8 0.22],kvas=[45.000000000 45.000000000],Taps=[1,1.000000000],%loadloss=1.522000000,%noloadloss=0.377777778
new transformer.1071979 Phases=3,Windings=2,Buses=[BMT172070289.1.2.3 BBT133841257.1.2.3.0],Conns=[delta wye],kvs=[13.8 0.22],kvas=[45.000000000 45.000000000],Taps=[1,1.000000000],%loadloss=1.522000000,%noloadloss=0.377777778
new transformer.1072588 Phases=3,Windings=2,Buses=[BMT133991449.1.2.3 BBT133991456.1.2.3.0],Conns=[delta wye],kvs=[13.8 0.22],kvas=[30.000000000 30.000000000],Taps=[1,1.000000000],%loadloss=1.667000000,%noloadloss=0.433333333
new transformer.1080141 Phases=1,Windings=3,Buses=[BMT154797980.2 BBT136061251.1.0 BBT136061251.0.2],Conns=[wye wye wye],kvs=[7.967 0.12 0.12],kvas=[5.000000000 5.000000000 5.000000000],Taps=[1,1.000000000,1.000000000],%loadloss=1.900000000,%noloadloss=0.600000000
new transformer.1084362 Phases=3,Windings=2,Buses=[BMT174602712.1.2.3 BBT137584423.1.2.3.0],Conns=[delta wye],kvs=[13.8 0.22],kvas=[75.000000000 75.000000000],Taps=[1,1.000000000],%loadloss=1.340000000,%noloadloss=0.340000000
new transformer.1085447 Phases=1,Windings=3,Buses=[BMT174698674.3 BBT137854294.1.0 BBT137854294.0.2],Conns=[wye wye wye],kvs=[7.967 0.12 0.12],kvas=[5.000000000 5.000000000 5.000000000],Taps=[1,1.000000000,1.000000000],%loadloss=1.900000000,%noloadloss=0.600000000
new transformer.1085608 Phases=1,Windings=3,Buses=[BMT174666946.2 BBT137880222.1.0 BBT137880222.0.2],Conns=[wye wye wye],kvs=[7.967 0.12 0.12],kvas=[5.000000000 5.000000000 5.000000000],Taps=[1,1.000000000,1.000000000],%loadloss=2.100000000,%noloadloss=0.700000000
new transformer.1099566 Phases=1,Windings=3,Buses=[BMT160208680.3 BBT141282460.1.0 BBT141282460.0.2],Conns=[wye wye wye],kvs=[7.967 0.12 0.12],kvas=[5.000000000 5.000000000 5.000000000],Taps=[1,1.000000000,1.000000000],%loadloss=1.900000000,%noloadloss=0.600000000
new transformer.1099993 Phases=3,Windings=2,Buses=[BMT170220292.1.2.3 BBT141430146.1.2.3.0],Conns=[delta wye],kvs=[13.8 0.22],kvas=[30.000000000 30.000000000],Taps=[1,1.000000000],%loadloss=1.667000000,%noloadloss=0.433333333
new transformer.1100455 Phases=1,Windings=3,Buses=[BMT143920151.3 BBT141534005.1.0 BBT141534005.0.2],Conns=[wye wye wye],kvs=[7.967 0.12 0.12],kvas=[5.000000000 5.000000000 5.000000000],Taps=[1,1.000000000,1.000000000],%loadloss=1.900000000,%noloadloss=0.600000000
new transformer.1100504 Phases=1,Windings=3,Buses=[BMT165010527.3 BBT141547592.1.0 BBT141547592.0.2],Conns=[wye wye wye],kvs=[7.967 0.12 0.12],kvas=[5.000000000 5.000000000 5.000000000],Taps=[1,1.000000000,1.000000000],%loadloss=1.900000000,%noloadloss=0.600000000
new transformer.1077768 Phases=3,Windings=2,Buses=[BMT173760135.1.2.3 BBT135397182.1.2.3.0],Conns=[delta wye],kvs=[13.8 0.22],kvas=[45.000000000 45.000000000],Taps=[1,1.000000000],%loadloss=1.522000000,%noloadloss=0.377777778
new transformer.1093441 Phases=1,Windings=3,Buses=[BMT152630247.1 BBT139954833.1.0 BBT139954833.0.2],Conns=[wye wye wye],kvs=[7.967 0.12 0.12],kvas=[5.000000000 5.000000000 5.000000000],Taps=[1,1.000000000,1.000000000],%loadloss=1.900000000,%noloadloss=0.600000000
new transformer.1093448 Phases=1,Windings=3,Buses=[BMT152630246.1 BBT139956835.1.0 BBT139956835.0.2],Conns=[wye wye wye],kvs=[7.967 0.12 0.12],kvas=[5.000000000 5.000000000 5.000000000],Taps=[1,1.000000000,1.000000000],%loadloss=1.900000000,%noloadloss=0.600000000
new transformer.1093462 Phases=1,Windings=3,Buses=[BMT152630249.1 BBT139957675.1.0 BBT139957675.0.2],Conns=[wye wye wye],kvs=[7.967 0.12 0.12],kvas=[5.000000000 5.000000000 5.000000000],Taps=[1,1.000000000,1.000000000],%loadloss=1.900000000,%noloadloss=0.600000000
new transformer.1093469 Phases=1,Windings=3,Buses=[BMT152630250.1 BBT139958025.1.0 BBT139958025.0.2],Conns=[wye wye wye],kvs=[7.967 0.12 0.12],kvas=[5.000000000 5.000000000 5.000000000],Taps=[1,1.000000000,1.000000000],%loadloss=1.900000000,%noloadloss=0.600000000
new transformer.1093476 Phases=1,Windings=3,Buses=[BMT152630252.1 BBT139960552.1.0 BBT139960552.0.2],Conns=[wye wye wye],kvs=[7.967 0.12 0.12],kvas=[10.000000000 10.000000000 10.000000000],Taps=[1,1.000000000,1.000000000],%loadloss=1.800000000,%noloadloss=0.450000000
new transformer.1093483 Phases=3,Windings=2,Buses=[BMT156126639.1.2.3 BBT139960748.1.2.3.0],Conns=[delta wye],kvs=[13.8 0.22],kvas=[45.000000000 45.000000000],Taps=[1,1.000000000],%loadloss=1.522000000,%noloadloss=0.377777778
new transformer.1093504 Phases=3,Windings=2,Buses=[BMT156126645.1.2.3 BBT139975525.1.2.3.0],Conns=[delta wye],kvs=[13.8 0.22],kvas=[45.000000000 45.000000000],Taps=[1,1.000000000],%loadloss=1.522000000,%noloadloss=0.377777778
new transformer.1093518 Phases=3,Windings=2,Buses=[BMT149181348.1.2.3 BBT139975805.1.2.3.0],Conns=[delta wye],kvs=[13.8 0.22],kvas=[45.000000000 45.000000000],Taps=[1,1.000000000],%loadloss=1.522000000,%noloadloss=0.377777778
new transformer.1093525 Phases=3,Windings=2,Buses=[BMT149181350.1.2.3 BBT139976400.1.2.3.0],Conns=[delta wye],kvs=[13.8 0.22],kvas=[45.000000000 45.000000000],Taps=[1,1.000000000],%loadloss=1.522000000,%noloadloss=0.377777778
new transformer.1093532 Phases=3,Windings=2,Buses=[BMT149181352.1.2.3 BBT139976827.1.2.3.0],Conns=[delta wye],kvs=[13.8 0.22],kvas=[45.000000000 45.000000000],Taps=[1,1.000000000],%loadloss=1.522000000,%noloadloss=0.377777778
new transformer.1093539 Phases=3,Windings=2,Buses=[BMT149181351.1.2.3 BBT139977562.1.2.3.0],Conns=[delta wye],kvs=[13.8 0.22],kvas=[45.000000000 45.000000000],Taps=[1,1.000000000],%loadloss=1.522000000,%noloadloss=0.377777778
new transformer.1093581 Phases=3,Windings=2,Buses=[BMT156126641.1.2.3 BBT139990253.1.2.3.0],Conns=[delta wye],kvs=[13.8 0.22],kvas=[45.000000000 45.000000000],Taps=[1,1.000000000],%loadloss=1.522000000,%noloadloss=0.377777778
new transformer.1093595 Phases=3,Windings=2,Buses=[BMT156126642.1.2.3 BBT139993221.1.2.3.0],Conns=[delta wye],kvs=[13.8 0.22],kvas=[45.000000000 45.000000000],Taps=[1,1.000000000],%loadloss=1.522000000,%noloadloss=0.377777778
new transformer.1093644 Phases=3,Windings=2,Buses=[BMT156126643.1.2.3 BBT140004617.1.2.3.0],Conns=[delta wye],kvs=[13.8 0.22],kvas=[45.000000000 45.000000000],Taps=[1,1.000000000],%loadloss=1.522000000,%noloadloss=0.377777778
new transformer.1100728 Phases=3,Windings=2,Buses=[BMT165559946.1.2.3 BBT141630493.1.2.3.0],Conns=[delta wye],kvs=[13.8 0.22],kvas=[45.000000000 45.000000000],Taps=[1,1.000000000],%loadloss=1.522000000,%noloadloss=0.377777778
new transformer.1100735 Phases=3,Windings=2,Buses=[BMT165559945.1.2.3 BBT141630542.1.2.3.0],Conns=[delta wye],kvs=[13.8 0.22],kvas=[75.000000000 75.000000000],Taps=[1,1.000000000],%loadloss=1.340000000,%noloadloss=0.340000000
new transformer.1112131 Phases=1,Windings=3,Buses=[BMT175885060.3 BBT144919212.1.0 BBT144919212.0.2],Conns=[wye wye wye],kvs=[7.967 0.12 0.12],kvas=[5.000000000 5.000000000 5.000000000],Taps=[1,1.000000000,1.000000000],%loadloss=1.900000000,%noloadloss=0.600000000
new transformer.1112915 Phases=1,Windings=3,Buses=[BMT171444104.1 BBT145043217.1.0 BBT145043217.0.2],Conns=[wye wye wye],kvs=[7.967 0.12 0.12],kvas=[5.000000000 5.000000000 5.000000000],Taps=[1,1.000000000,1.000000000],%loadloss=1.900000000,%noloadloss=0.600000000
new transformer.1113055 Phases=1,Windings=3,Buses=[BMT165405494.3 BBT145070993.1.0 BBT145070993.0.2],Conns=[wye wye wye],kvs=[7.967 0.12 0.12],kvas=[10.000000000 10.000000000 10.000000000],Taps=[1,1.000000000,1.000000000],%loadloss=1.800000000,%noloadloss=0.450000000
new transformer.1115372 Phases=1,Windings=3,Buses=[BMT145622348.3 BBT145621137.1.0 BBT145621137.0.2],Conns=[wye wye wye],kvs=[7.967 0.12 0.12],kvas=[10.000000000 10.000000000 10.000000000],Taps=[1,1.000000000,1.000000000],%loadloss=1.800000000,%noloadloss=0.450000000
new transformer.1120041 Phases=3,Windings=2,Buses=[BMT148565507.1.2.3 BBT146850855.1.2.3.0],Conns=[delta wye],kvs=[13.8 0.22],kvas=[75.000000000 75.000000000],Taps=[1,1.000000000],%loadloss=1.340000000,%noloadloss=0.340000000
new transformer.1105208 Phases=3,Windings=2,Buses=[BMT174507892.1.2.3 BBT142971287.1.2.3.0],Conns=[delta wye],kvs=[13.8 0.22],kvas=[75.000000000 75.000000000],Taps=[1,1.000000000],%loadloss=1.340000000,%noloadloss=0.340000000
new transformer.1105299 Phases=1,Windings=3,Buses=[BMT164718343.1 BBT142989074.1.0 BBT142989074.0.2],Conns=[wye wye wye],kvs=[7.967 0.12 0.12],kvas=[5.000000000 5.000000000 5.000000000],Taps=[1,1.000000000,1.000000000],%loadloss=1.900000000,%noloadloss=0.600000000
new transformer.1109261 Phases=1,Windings=3,Buses=[BMT161217125.3 BBT144121695.1.0 BBT144121695.0.2],Conns=[wye wye wye],kvs=[7.967 0.12 0.12],kvas=[10.000000000 10.000000000 10.000000000],Taps=[1,1.000000000,1.000000000],%loadloss=1.800000000,%noloadloss=0.450000000
new transformer.1109401 Phases=3,Windings=2,Buses=[BMT176389935.1.2.3 BBT144177163.1.2.3.0],Conns=[delta wye],kvs=[13.8 0.22],kvas=[30.000000000 30.000000000],Taps=[1,1.000000000],%loadloss=1.667000000,%noloadloss=0.433333333
new transformer.1109464 Phases=3,Windings=2,Buses=[BMT161261385.1.2.3 BBT144198338.1.2.3.0],Conns=[delta wye],kvs=[13.8 0.22],kvas=[45.000000000 45.000000000],Taps=[1,1.000000000],%loadloss=1.522000000,%noloadloss=0.377777778
new transformer.1109485 Phases=3,Windings=2,Buses=[BMT161261386.1.2.3 BBT144202692.1.2.3.0],Conns=[delta wye],kvs=[13.8 0.22],kvas=[45.000000000 45.000000000],Taps=[1,1.000000000],%loadloss=1.522000000,%noloadloss=0.377777778
new transformer.1109492 Phases=3,Windings=2,Buses=[BMT161261387.1.2.3 BBT144204330.1.2.3.0],Conns=[delta wye],kvs=[13.8 0.22],kvas=[45.000000000 45.000000000],Taps=[1,1.000000000],%loadloss=1.522000000,%noloadloss=0.377777778
new transformer.1109499 Phases=3,Windings=2,Buses=[BMT161261389.1.2.3 BBT144206003.1.2.3.0],Conns=[delta wye],kvs=[13.8 0.22],kvas=[45.000000000 45.000000000],Taps=[1,1.000000000],%loadloss=1.522000000,%noloadloss=0.377777778
new transformer.1109506 Phases=3,Windings=2,Buses=[BMT161261390.1.2.3 BBT144206563.1.2.3.0],Conns=[delta wye],kvs=[13.8 0.22],kvas=[45.000000000 45.000000000],Taps=[1,1.000000000],%loadloss=1.522000000,%noloadloss=0.377777778
new transformer.1109667 Phases=1,Windings=3,Buses=[BMT175792484.3 BBT144264642.1.0 BBT144264642.0.2],Conns=[wye wye wye],kvs=[7.967 0.12 0.12],kvas=[10.000000000 10.000000000 10.000000000],Taps=[1,1.000000000,1.000000000],%loadloss=1.800000000,%noloadloss=0.450000000
new transformer.1114021 Phases=3,Windings=2,Buses=[BMT172070474.1.2.3 BBT145302322.1.2.3.0],Conns=[delta wye],kvs=[13.8 0.22],kvas=[45.000000000 45.000000000],Taps=[1,1.000000000],%loadloss=1.522000000,%noloadloss=0.377777778
new transformer.1117899 Phases=1,Windings=3,Buses=[BMT171337613.3 BBT146329824.1.0 BBT146329824.0.2],Conns=[wye wye wye],kvs=[7.967 0.12 0.12],kvas=[5.000000000 5.000000000 5.000000000],Taps=[1,1.000000000,1.000000000],%loadloss=1.900000000,%noloadloss=0.600000000
new transformer.1117906 Phases=1,Windings=3,Buses=[BMT171337612.3 BBT146329873.1.0 BBT146329873.0.2],Conns=[wye wye wye],kvs=[7.967 0.12 0.12],kvas=[15.000000000 15.000000000 15.000000000],Taps=[1,1.000000000,1.000000000],%loadloss=1.600000000,%noloadloss=0.400000000
new transformer.1121161 Phases=1,Windings=3,Buses=[BMT168122151.3 BBT147097696.1.0 BBT147097696.0.2],Conns=[wye wye wye],kvs=[7.967 0.12 0.12],kvas=[5.000000000 5.000000000 5.000000000],Taps=[1,1.000000000,1.000000000],%loadloss=1.900000000,%noloadloss=0.600000000
new transformer.1121168 Phases=1,Windings=3,Buses=[BMT168122150.3 BBT147098886.1.0 BBT147098886.0.2],Conns=[wye wye wye],kvs=[7.967 0.12 0.12],kvas=[5.000000000 5.000000000 5.000000000],Taps=[1,1.000000000,1.000000000],%loadloss=1.900000000,%noloadloss=0.600000000
new transformer.1123268 Phases=1,Windings=3,Buses=[BMT147675840.3 BBT147675854.1.0 BBT147675854.0.2],Conns=[wye wye wye],kvs=[7.967 0.12 0.12],kvas=[10.000000000 10.000000000 10.000000000],Taps=[1,1.000000000,1.000000000],%loadloss=1.800000000,%noloadloss=0.450000000
new transformer.1123471 Phases=3,Windings=2,Buses=[BMT172070484.1.2.3 BBT147714354.1.2.3.0],Conns=[delta wye],kvs=[13.8 0.22],kvas=[75.000000000 75.000000000],Taps=[1,1.000000000],%loadloss=1.340000000,%noloadloss=0.340000000
new transformer.1123625 Phases=3,Windings=2,Buses=[BMT172070481.1.2.3 BBT147748101.1.2.3.0],Conns=[delta wye],kvs=[13.8 0.22],kvas=[45.000000000 45.000000000],Taps=[1,1.000000000],%loadloss=1.522000000,%noloadloss=0.377777778
new transformer.1123632 Phases=3,Windings=2,Buses=[BMT172070482.1.2.3 BBT147751489.1.2.3.0],Conns=[delta wye],kvs=[13.8 0.22],kvas=[45.000000000 45.000000000],Taps=[1,1.000000000],%loadloss=1.522000000,%noloadloss=0.377777778
...
