2024_89_CemigReconfigurationCases/1_SEsCemig_2/AXAU03/AXAU03CargaMT_Dez.dss
new load.3009000869M1 bus1=BMT170277753.1.2.3,Phases=3,kv=13.8,kW=405.69604,pf=0.92,Vminpu=0.93,Vmaxpu=1.5,model=1,daily=A4-6,status=variable
new load.3009002147M1 bus1=BMT172070261.1.2.3,Phases=3,kv=13.8,kW=38.68484,pf=0.92,Vminpu=0.93,Vmaxpu=1.5,model=1,daily=A4-2,status=variable
new load.3009002154M1 bus1=BMT120009005.1.2.3,Phases=3,kv=13.8,kW=46.88102,pf=0.92,Vminpu=0.93,Vmaxpu=1.5,model=1,daily=A4-3,status=variable
new load.3009002213M1 bus1=BMT167091773.1.2.3,Phases=3,kv=13.8,kW=7.72002,pf=0.92,Vminpu=0.93,Vmaxpu=1.5,model=1,daily=A4-1,status=variable
new load.3009005690M1 bus1=BMT119967908.1.2.3,Phases=3,kv=13.8,kW=53.33564,pf=0.92,Vminpu=0.93,Vmaxpu=1.5,model=1,daily=A4-3,status=variable
new load.3009005691M1 bus1=BMT173046217.1.2.3,Phases=3,kv=13.8,kW=24.85738,pf=0.92,Vminpu=0.93,Vmaxpu=1.5,model=1,daily=A4-3,status=variable
new load.3009006998M1 bus1=BMT120009019.1.2.3,Phases=3,kv=13.8,kW=0.35804,pf=0.92,Vminpu=0.93,Vmaxpu=1.5,model=1,daily=A4-1,status=variable
new load.3009006999M1 bus1=BMT172070292.1.2.3,Phases=3,kv=13.8,kW=9.03664,pf=0.92,Vminpu=0.93,Vmaxpu=1.5,model=1,daily=A4-2,status=variable
new load.3009007006M1 bus1=BMT119994795.1.2.3,Phases=3,kv=13.8,kW=0.13106,pf=0.92,Vminpu=0.93,Vmaxpu=1.5,model=1,daily=A4-1,status=variable
new load.3009007637M1 bus1=BMT161948751.1.2.3,Phases=3,kv=13.8,kW=136.96064,pf=0.92,Vminpu=0.93,Vmaxpu=1.5,model=1,daily=A4-6,status=variable
new load.3009007640M1 bus1=BMT119976525.1.2.3,Phases=3,kv=13.8,kW=5.24258,pf=0.92,Vminpu=0.93,Vmaxpu=1.5,model=1,daily=A4-1,status=variable
new load.3009007737M1 bus1=BMT119992716.1.2.3,Phases=3,kv=13.8,kW=3.35654,pf=0.92,Vminpu=0.93,Vmaxpu=1.5,model=1,daily=A4-1,status=variable
new load.3009008803M1 bus1=BMT150347573.1.2.3,Phases=3,kv=13.8,kW=6.94642,pf=0.92,Vminpu=0.93,Vmaxpu=1.5,model=1,daily=A4-1,status=variable
new load.3009009144M1 bus1=BMT150346733.1.2.3,Phases=3,kv=13.8,kW=0.91746,pf=0.92,Vminpu=0.93,Vmaxpu=1.5,model=1,daily=A4-1,status=variable
new load.3009009150M1 bus1=BMT120014521.1.2.3,Phases=3,kv=13.8,kW=40.25652,pf=0.92,Vminpu=0.93,Vmaxpu=1.5,model=1,daily=A4-3,status=variable
new load.3009009304M1 bus1=BMT150347117.1.2.3,Phases=3,kv=13.8,kW=26.7888,pf=0.92,Vminpu=0.93,Vmaxpu=1.5,model=1,daily=A4-2,status=variable
new load.3009009328M1 bus1=BMT119995131.1.2.3,Phases=3,kv=13.8,kW=3.08752,pf=0.92,Vminpu=0.93,Vmaxpu=1.5,model=1,daily=A4-2,status=variable
new load.3009009600M1 bus1=BMT120014094.1.2.3,Phases=3,kv=13.8,kW=6.19044,pf=0.92,Vminpu=0.93,Vmaxpu=1.5,model=1,daily=A4-4,status=variable
new load.3009010084M1 bus1=BMT119967922.1.2.3,Phases=3,kv=13.8,kW=9.08094,pf=0.92,Vminpu=0.93,Vmaxpu=1.5,model=1,daily=A4-2,status=variable
new load.3009010437M1 bus1=BMT168038297.1.2.3,Phases=3,kv=13.8,kW=3.45882,pf=0.92,Vminpu=0.93,Vmaxpu=1.5,model=1,daily=A4-1,status=variable
new load.3009010776M1 bus1=BMT173113698.1.2.3,Phases=3,kv=13.8,kW=9.8601,pf=0.92,Vminpu=0.93,Vmaxpu=1.5,model=1,daily=A4-3,status=variable
new load.3009011174M1 bus1=BMT134800796.1.2.3,Phases=3,kv=13.8,kW=32.78274,pf=0.92,Vminpu=0.93,Vmaxpu=1.5,model=1,daily=A4-3,status=variable
new load.3009011193M1 bus1=BMT173113376.1.2.3,Phases=3,kv=13.8,kW=11.4551,pf=0.92,Vminpu=0.93,Vmaxpu=1.5,model=1,daily=A4-3,status=variable
new load.3009011420M1 bus1=BMT170606081.1.2.3,Phases=3,kv=13.8,kW=0.33566,pf=0.92,Vminpu=0.93,Vmaxpu=1.5,model=1,daily=A4-1,status=variable
new load.3009011441M1 bus1=BMT119964702.1.2.3,Phases=3,kv=13.8,kW=67.90776,pf=0.92,Vminpu=0.93,Vmaxpu=1.5,model=1,daily=A4-2,status=variable
new load.3009011481M1 bus1=BMT120005806.1.2.3,Phases=3,kv=13.8,kW=19.96374,pf=0.92,Vminpu=0.93,Vmaxpu=1.5,model=1,daily=A4-4,status=variable
new load.3009012046M1 bus1=BMT174016409.1.2.3,Phases=3,kv=13.8,kW=6.37742,pf=0.92,Vminpu=0.93,Vmaxpu=1.5,model=1,daily=A4-1,status=variable
new load.3009012323M1 bus1=BMT119994977.1.2.3,Phases=3,kv=13.8,kW=1.01916,pf=0.92,Vminpu=0.93,Vmaxpu=1.5,model=1,daily=A4-3,status=variable
new load.3009012378M1 bus1=BMT174578926.1.2.3,Phases=3,kv=13.8,kW=14.21014,pf=0.92,Vminpu=0.93,Vmaxpu=1.5,model=1,daily=A4-3,status=variable
new load.3009012418M1 bus1=BMT150346831.1.2.3,Phases=3,kv=13.8,kW=24.0645,pf=0.92,Vminpu=0.93,Vmaxpu=1.5,model=1,daily=A4-2,status=variable
new load.3009012435M1 bus1=BMT162020899.1.2.3,Phases=3,kv=13.8,kW=2.75236,pf=0.92,Vminpu=0.93,Vmaxpu=1.5,model=1,daily=A4-1,status=variable
new load.3009012437M1 bus1=BMT119949624.1.2.3,Phases=3,kv=13.8,kW=21.298,pf=0.92,Vminpu=0.93,Vmaxpu=1.5,model=1,daily=A4-1,status=variable
new load.3009012453M1 bus1=BMT120005379.1.2.3,Phases=3,kv=13.8,kW=5.67456,pf=0.92,Vminpu=0.93,Vmaxpu=1.5,model=1,daily=A4-4,status=variable
new load.3009012784M1 bus1=BMT119977232.1.2.3,Phases=3,kv=13.8,kW=81.72898,pf=0.92,Vminpu=0.93,Vmaxpu=1.5,model=1,daily=A4-3,status=variable
new load.3009013333M1 bus1=BMT119949834.1.2.3,Phases=3,kv=13.8,kW=46.08436,pf=0.92,Vminpu=0.93,Vmaxpu=1.5,model=1,daily=A4-4,status=variable
new load.3009013543M1 bus1=BMT172070535.1.2.3,Phases=3,kv=13.8,kW=6.15364,pf=0.92,Vminpu=0.93,Vmaxpu=1.5,model=1,daily=A4-1,status=variable
new load.3009013544M1 bus1=BMT120005484.1.2.3,Phases=3,kv=13.8,kW=2.4074,pf=0.92,Vminpu=0.93,Vmaxpu=1.5,model=1,daily=A4-4,status=variable
new load.3009013545M1 bus1=BMT120005883.1.2.3,Phases=3,kv=13.8,kW=3.17834,pf=0.92,Vminpu=0.93,Vmaxpu=1.5,model=1,daily=A4-2,status=variable
new load.3009013546M1 bus1=BMT120005869.1.2.3,Phases=3,kv=13.8,kW=5.60534,pf=0.92,Vminpu=0.93,Vmaxpu=1.5,model=1,daily=A4-3,status=variable
new load.3009013784M1 bus1=BMT171499547.1.2.3,Phases=3,kv=13.8,kW=13.42614,pf=0.92,Vminpu=0.93,Vmaxpu=1.5,model=1,daily=A4-1,status=variable
new load.3009013981M1 bus1=BMT119960397.1.2.3,Phases=3,kv=13.8,kW=559.14516,pf=0.92,Vminpu=0.93,Vmaxpu=1.5,model=1,daily=A4-6,status=variable
new load.3009014230M1 bus1=BMT150347121.1.2.3,Phases=3,kv=13.8,kW=44.8427,pf=0.92,Vminpu=0.93,Vmaxpu=1.5,model=1,daily=A4-3,status=variable
new load.3009014490M1 bus1=BMT119974068.1.2.3,Phases=3,kv=13.8,kW=87.9951,pf=0.92,Vminpu=0.93,Vmaxpu=1.5,model=1,daily=A4-3,status=variable
new load.3009014676M1 bus1=BMT153531875.1.2.3,Phases=3,kv=13.8,kW=3.53874,pf=0.92,Vminpu=0.93,Vmaxpu=1.5,model=1,daily=A4-1,status=variable
new load.3009016110M1 bus1=BMT120013786.1.2.3,Phases=3,kv=13.8,kW=10.53124,pf=0.92,Vminpu=0.93,Vmaxpu=1.5,model=1,daily=A4-3,status=variable
new load.3009016144M1 bus1=BMT119961097.1.2.3,Phases=3,kv=13.8,kW=171.01286,pf=0.92,Vminpu=0.93,Vmaxpu=1.5,model=1,daily=A4-4,status=variable
new load.3009016197M1 bus1=BMT168273489.1.2.3,Phases=3,kv=13.8,kW=310.48844,pf=0.92,Vminpu=0.93,Vmaxpu=1.5,model=1,daily=A4-6,status=variable
new load.3009016368M1 bus1=BMT161275418.1.2.3,Phases=3,kv=13.8,kW=41.27568,pf=0.92,Vminpu=0.93,Vmaxpu=1.5,model=1,daily=A4-3,status=variable
new load.3009017328M1 bus1=BMT119949596.1.2.3,Phases=3,kv=13.8,kW=23.42884,pf=0.92,Vminpu=0.93,Vmaxpu=1.5,model=1,daily=A4-2,status=variable
new load.3009017556M1 bus1=BMT172402457.1.2.3,Phases=3,kv=13.8,kW=3.47322,pf=0.92,Vminpu=0.93,Vmaxpu=1.5,model=1,daily=A4-1,status=variable
new load.3009017999M1 bus1=BMT119949666.1.2.3,Phases=3,kv=13.8,kW=89.25592,pf=0.92,Vminpu=0.93,Vmaxpu=1.5,model=1,daily=A4-5,status=variable
new load.3009018338M1 bus1=BMT172221621.1.2.3,Phases=3,kv=13.8,kW=29.63524,pf=0.92,Vminpu=0.93,Vmaxpu=1.5,model=1,daily=A4-4,status=variable
new load.3009018521M1 bus1=BMT119994886.1.2.3,Phases=3,kv=13.8,kW=25.64866,pf=0.92,Vminpu=0.93,Vmaxpu=1.5,model=1,daily=A4-3,status=variable
new load.3009018644M1 bus1=BMT150343867.1.2.3,Phases=3,kv=13.8,kW=138.46946,pf=0.92,Vminpu=0.93,Vmaxpu=1.5,model=1,daily=A4-5,status=variable
new load.3009019167M1 bus1=BMT150343856.1.2.3,Phases=3,kv=13.8,kW=24.36022,pf=0.92,Vminpu=0.93,Vmaxpu=1.5,model=1,daily=A4-3,status=variable
new load.3009019465M1 bus1=BMT119992737.1.2.3,Phases=3,kv=13.8,kW=55.19386,pf=0.92,Vminpu=0.93,Vmaxpu=1.5,model=1,daily=A4-4,status=variable
new load.3009019623M1 bus1=BMT133989636.1.2.3,Phases=3,kv=13.8,kW=129.09264,pf=0.92,Vminpu=0.93,Vmaxpu=1.5,model=1,daily=A4-3,status=variable
new load.3009020114M1 bus1=BMT119965465.1.2.3,Phases=3,kv=13.8,kW=82.5458,pf=0.92,Vminpu=0.93,Vmaxpu=1.5,model=1,daily=A4-2,status=variable
new load.3009020784M1 bus1=BMT119994830.1.2.3,Phases=3,kv=13.8,kW=0.06554,pf=0.92,Vminpu=0.93,Vmaxpu=1.5,model=1,daily=A4-1,status=variable
new load.3009020861M1 bus1=BMT158448321.1.2.3,Phases=3,kv=13.8,kW=96.64962,pf=0.92,Vminpu=0.93,Vmaxpu=1.5,model=1,daily=A4-3,status=variable
new load.3009020938M1 bus1=BMT120020471.1.2.3,Phases=3,kv=13.8,kW=21.79428,pf=0.92,Vminpu=0.93,Vmaxpu=1.5,model=1,daily=A4-2,status=variable
new load.3009021641M1 bus1=BMT119978254.1.2.3,Phases=3,kv=13.8,kW=10.07986,pf=0.92,Vminpu=0.93,Vmaxpu=1.5,model=1,daily=A4-2,status=variable
new load.3009021706M1 bus1=BMT119992912.1.2.3,Phases=3,kv=13.8,kW=95.7009,pf=0.92,Vminpu=0.93,Vmaxpu=1.5,model=1,daily=A4-3,status=variable
new load.3009021840M1 bus1=BMT166660933.1.2.3,Phases=3,kv=13.8,kW=119.16588,pf=0.92,Vminpu=0.93,Vmaxpu=1.5,model=1,daily=A4-4,status=variable
new load.3009021857M1 bus1=BMT120014409.1.2.3,Phases=3,kv=13.8,kW=11.00942,pf=0.92,Vminpu=0.93,Vmaxpu=1.5,model=1,daily=A4-1,status=variable
new load.3009021934M1 bus1=BMT119949778.1.2.3,Phases=3,kv=13.8,kW=98.28874,pf=0.92,Vminpu=0.93,Vmaxpu=1.5,model=1,daily=A4-6,status=variable
new load.3009022128M1 bus1=BMT119965500.1.2.3,Phases=3,kv=13.8,kW=74.52428,pf=0.92,Vminpu=0.93,Vmaxpu=1.5,model=1,daily=A4-4,status=variable
new load.3009022325M1 bus1=BMT151801261.1.2.3,Phases=3,kv=13.8,kW=99.10636,pf=0.92,Vminpu=0.93,Vmaxpu=1.5,model=1,daily=A4-3,status=variable
new load.3009022345M1 bus1=BMT120020730.1.2.3,Phases=3,kv=13.8,kW=49.17538,pf=0.92,Vminpu=0.93,Vmaxpu=1.5,model=1,daily=A4-4,status=variable
new load.3010001327M1 bus1=BMT150343860.1.2.3,Phases=3,kv=13.8,kW=42.32606,pf=0.92,Vminpu=0.93,Vmaxpu=1.5,model=1,daily=A4-2,status=variable
new load.3010002028M1 bus1=BMT120014577.1.2.3,Phases=3,kv=13.8,kW=7.99124,pf=0.92,Vminpu=0.93,Vmaxpu=1.5,model=1,daily=A4-2,status=variable
new load.3010105701M1 bus1=BMT119977246.1.2.3,Phases=3,kv=13.8,kW=139.93252,pf=0.92,Vminpu=0.93,Vmaxpu=1.5,model=1,daily=A4-3,status=variable
new load.3010199119M1 bus1=BMT120007423.1.2.3,Phases=3,kv=13.8,kW=7.44638,pf=0.92,Vminpu=0.93,Vmaxpu=1.5,model=1,daily=A4-2,status=variable
new load.3010314871M1 bus1=BMT119964898.1.2.3,Phases=3,kv=13.8,kW=50.36312,pf=0.92,Vminpu=0.93,Vmaxpu=1.5,model=1,daily=A4-3,status=variable
new load.3010331420M1 bus1=BMT119956981.1.2.3,Phases=3,kv=13.8,kW=7.628,pf=0.92,Vminpu=0.93,Vmaxpu=1.5,model=1,daily=A4-2,status=variable
new load.3010431143M1 bus1=BMT150343839.1.2.3,Phases=3,kv=13.8,kW=65.39562,pf=0.92,Vminpu=0.93,Vmaxpu=1.5,model=1,daily=A4-3,status=variable
new load.3010626636M1 bus1=BMT120014493.1.2.3,Phases=3,kv=13.8,kW=60.02506,pf=0.92,Vminpu=0.93,Vmaxpu=1.5,model=1,daily=A4-2,status=variable
new load.3011045555M1 bus1=BMT120020625.1.2.3,Phases=3,kv=13.8,kW=13.98466,pf=0.92,Vminpu=0.93,Vmaxpu=1.5,model=1,daily=A4-2,status=variable
new load.3011308242M1 bus1=BMT173630306.1.2.3,Phases=3,kv=13.8,kW=1.45296,pf=0.92,Vminpu=0.93,Vmaxpu=1.5,model=1,daily=A4-2,status=variable
new load.3011316731M1 bus1=BMT120014535.1.2.3,Phases=3,kv=13.8,kW=18.34474,pf=0.92,Vminpu=0.93,Vmaxpu=1.5,model=1,daily=A4-3,status=variable
new load.3011426135M1 bus1=BMT120020989.1.2.3,Phases=3,kv=13.8,kW=36.68948,pf=0.92,Vminpu=0.93,Vmaxpu=1.5,model=1,daily=A4-3,status=variable
new load.3011469439M1 bus1=BMT150346951.1.2.3,Phases=3,kv=13.8,kW=81.19248,pf=0.92,Vminpu=0.93,Vmaxpu=1.5,model=1,daily=A4-3,status=variable
new load.3011735948M1 bus1=BMT138519105.1.2.3,Phases=3,kv=13.8,kW=3.26914,pf=0.92,Vminpu=0.93,Vmaxpu=1.5,model=1,daily=A4-2,status=variable
new load.3011743049M1 bus1=BMT136086864.1.2.3,Phases=3,kv=13.8,kW=3.17834,pf=0.92,Vminpu=0.93,Vmaxpu=1.5,model=1,daily=A4-2,status=variable
new load.3011823355M1 bus1=BMT150347984.1.2.3,Phases=3,kv=13.8,kW=19.38006,pf=0.92,Vminpu=0.93,Vmaxpu=1.5,model=1,daily=A4-2,status=variable
new load.3011986144M1 bus1=BMT163616809.1.2.3,Phases=3,kv=13.8,kW=1.67826,pf=0.92,Vminpu=0.93,Vmaxpu=1.5,model=1,daily=A4-1,status=variable
new load.3012126414M1 bus1=BMT154279963.1.2.3,Phases=3,kv=13.8,kW=57.48238,pf=0.92,Vminpu=0.93,Vmaxpu=1.5,model=1,daily=A4-2,status=variable
new load.3012144720M1 bus1=BMT149308821.1.2.3,Phases=3,kv=13.8,kW=24.07392,pf=0.92,Vminpu=0.93,Vmaxpu=1.5,model=1,daily=A4-4,status=variable
new load.3012148933M1 bus1=BMT151831128.1.2.3,Phases=3,kv=13.8,kW=776.45858,pf=0.92,Vminpu=0.93,Vmaxpu=1.5,model=1,daily=A4-6,status=variable
new load.3012211763M1 bus1=BMT171576340.1.2.3,Phases=3,kv=13.8,kW=62.05436,pf=0.92,Vminpu=0.93,Vmaxpu=1.5,model=1,daily=A4-3,status=variable
new load.3012240304M1 bus1=BMT153534564.1.2.3,Phases=3,kv=13.8,kW=3.6789,pf=0.92,Vminpu=0.93,Vmaxpu=1.5,model=1,daily=A4-3,status=variable
new load.3012303452M1 bus1=BMT150255143.1.2.3,Phases=3,kv=13.8,kW=18.2378,pf=0.92,Vminpu=0.93,Vmaxpu=1.5,model=1,daily=A4-5,status=variable
new load.3012793068M1 bus1=BMT168967399.1.2.3,Phases=3,kv=13.8,kW=220.25972,pf=0.92,Vminpu=0.93,Vmaxpu=1.5,model=1,daily=A4-5,status=variable
new load.3012864214M1 bus1=BMT172070500.1.2.3,Phases=3,kv=13.8,kW=83.5447,pf=0.92,Vminpu=0.93,Vmaxpu=1.5,model=1,daily=A4-2,status=variable
new load.3012988284M1 bus1=BMT160864475.1.2.3,Phases=3,kv=13.8,kW=14.79194,pf=0.92,Vminpu=0.93,Vmaxpu=1.5,model=1,daily=A4-5,status=variable
new load.3013063517M1 bus1=BMT172070382.1.2.3,Phases=3,kv=13.8,kW=3773.60938,pf=0.92,Vminpu=0.93,Vmaxpu=1.5,model=1,daily=A4-7,status=variable
new load.3013088864M1 bus1=BMT158387064.1.2.3,Phases=3,kv=13.8,kW=0.16986,pf=0.92,Vminpu=0.93,Vmaxpu=1.5,model=1,daily=A4-3,status=variable
new load.3013144443M1 bus1=BMT171326847.1.2.3,Phases=3,kv=13.8,kW=11.30258,pf=0.92,Vminpu=0.93,Vmaxpu=1.5,model=1,daily=A4-6,status=variable
new load.3013181982M1 bus1=BMT164992433.1.2.3,Phases=3,kv=13.8,kW=154.43794,pf=0.92,Vminpu=0.93,Vmaxpu=1.5,model=1,daily=A4-4,status=variable
new load.3013227209M1 bus1=BMT160604399.1.2.3,Phases=3,kv=13.8,kW=5.30812,pf=0.92,Vminpu=0.93,Vmaxpu=1.5,model=1,daily=A4-1,status=variable
new load.3013255373M1 bus1=BMT172070389.1.2.3,Phases=3,kv=13.8,kW=464.85972,pf=0.92,Vminpu=0.93,Vmaxpu=1.5,model=1,daily=A4-5,status=variable
new load.3013256854M1 bus1=BMT119992758.1.2.3,Phases=3,kv=13.8,kW=276.08412,pf=0.92,Vminpu=0.93,Vmaxpu=1.5,model=1,daily=A4-5,status=variable
new load.3013349279M1 bus1=BMT159185830.1.2.3,Phases=3,kv=13.8,kW=179.68776,pf=0.92,Vminpu=0.93,Vmaxpu=1.5,model=1,daily=A4-3,status=variable
new load.3013366695M1 bus1=BMT162150541.1.2.3,Phases=3,kv=13.8,kW=8.408,pf=0.92,Vminpu=0.93,Vmaxpu=1.5,model=1,daily=A4-3,status=variable
new load.3013415335M1 bus1=BMT165919124.1.2.3,Phases=3,kv=13.8,kW=167.88526,pf=0.92,Vminpu=0.93,Vmaxpu=1.5,model=1,daily=A4-5,status=variable
new load.3013468610M1 bus1=BMT168743910.1.2.3,Phases=3,kv=13.8,kW=5.58146,pf=0.92,Vminpu=0.93,Vmaxpu=1.5,model=1,daily=A4-2,status=variable
new load.3013544104M1 bus1=BMT174602706.1.2,Phases=2,kv=13.8,kW=13.42614,pf=0.92,Vminpu=0.93,Vmaxpu=1.5,model=1,daily=A4-1,status=variable
new load.3013616807M1 bus1=BMT170884581.1.2.3,Phases=3,kv=13.8,kW=11.3101,pf=0.92,Vminpu=0.93,Vmaxpu=1.5,model=1,daily=A4-3,status=variable
new load.3013766387M1 bus1=BMT171443843.1.2.3,Phases=3,kv=13.8,kW=21.81074,pf=0.92,Vminpu=0.93,Vmaxpu=1.5,model=1,daily=A4-5,status=variable
new load.3013807425M1 bus1=BMT174391058.1.2.3,Phases=3,kv=13.8,kW=40.60038,pf=0.92,Vminpu=0.93,Vmaxpu=1.5,model=1,daily=A4-3,status=variable
new load.3013871268M1 bus1=BMT172406118.1.2.3,Phases=3,kv=13.8,kW=18.5063,pf=0.92,Vminpu=0.93,Vmaxpu=1.5,model=1,daily=A4-4,status=variable
new load.3013886546M1 bus1=BMT171808012.1.2.3,Phases=3,kv=13.8,kW=23.78022,pf=0.92,Vminpu=0.93,Vmaxpu=1.5,model=1,daily=A4-3,status=variable
new load.3014006769M1 bus1=BMT174203378.1.2.3,Phases=3,kv=13.8,kW=23.49022,pf=0.92,Vminpu=0.93,Vmaxpu=1.5,model=1,daily=A4-3,status=variable
new load.3014272428M1 bus1=BMT176390024.1.2.3,Phases=3,kv=13.8,kW=232.35228,pf=0.92,Vminpu=0.93,Vmaxpu=1.5,model=1,daily=A4-7,status=variable
